data/upstream/arpae-go/extracted/Challenge_1_Original_Dataset_2_Scenarios/Original_Dataset_Real-Time_Edition_2/Network_05R-010/scenario_3/case.raw
 0,    100, 33, 0, 0, 60.0 / Header line 1
Header line 2
Header line 3
  1001,'',   115, 1, 1, 1, 1, 0.99372389, -108.94966, 1.1, 0.9, 1.1, 0.9
  1002,'',   115, 1, 1, 1, 1, 1.0282088, -117.9094, 1.1, 0.9, 1.1, 0.9
  1003,'',   115, 1, 1, 1, 1, 1.0138406, -112.94977, 1.1, 0.9, 1.1, 0.9
  1004,'',   230, 2, 1, 1, 1, 1.0151107, -112.92051, 1.1, 0.9, 1.1, 0.9
  1005,'',   115, 1, 1, 1, 1, 1.0041947, -121.09502, 1.1, 0.9, 1.1, 0.9
  1006,'',  13.8, 2, 1, 1, 1, 1, -120.81628, 1.1, 0.9, 1.1, 0.9
  1007,'',   115, 1, 1, 1, 1, 1.030751, -116.77956, 1.1, 0.9, 1.1, 0.9
  1008,'',   115, 1, 1, 1, 1, 1.0183046, -111.2507, 1.1, 0.9, 1.1, 0.9
  1009,'',  13.8, 2, 1, 1, 1, 1.008116, -109.56576, 1.1, 0.9, 1.1, 0.9
  1010,'',   115, 1, 1, 1, 1, 1.034074, -117.15474, 1.1, 0.9, 1.1, 0.9
  1011,'',    22, 2, 1, 1, 1, 1.0343288, -115.92007, 1.1, 0.9, 1.1, 0.9
  1012,'',   115, 1, 1, 1, 1, 1.015, -115.32764, 1.1, 0.9, 1.1, 0.9
  1013,'',   115, 1, 1, 1, 1, 1.0059038, -110.36244, 1.1, 0.9, 1.1, 0.9
  1014,'',   115, 1, 1, 1, 1, 1.0097114, -110.10516, 1.1, 0.9, 1.1, 0.9
  1015,'',   115, 1, 1, 1, 1, 1.0349374, -117.65504, 1.1, 0.9, 1.1, 0.9
  1016,'',   115, 1, 1, 1, 1, 1.0137117, -123.45201, 1.1, 0.9, 1.1, 0.9
  1017,'',   115, 1, 1, 1, 1, 0.98717065, -113.04101, 1.1, 0.9, 1.1, 0.9
  1018,'',   115, 1, 1, 1, 1, 0.98461117, -114.28773, 1.1, 0.9, 1.1, 0.9
  1019,'',   115, 1, 1, 1, 1, 1.0121499, -109.89375, 1.1, 0.9, 1.1, 0.9
  1020,'',   115, 1, 1, 1, 1, 1.015, -118.40443, 1.1, 0.9, 1.1, 0.9
  1021,'',  13.8, 2, 1, 1, 1, 1, -118.03772, 1.1, 0.9, 1.1, 0.9
  1022,'',   115, 1, 1, 1, 1, 1.0164814, -112.27677, 1.1, 0.9, 1.1, 0.9
  1023,'',  13.8, 2, 1, 1, 1, 1.01, -107.69667, 1.1, 0.9, 1.1, 0.9
  1024,'',   115, 1, 1, 1, 1, 0.98609612, -115.25417, 1.1, 0.9, 1.1, 0.9
  1025,'',   115, 1, 1, 1, 1, 1.0105668, -119.07875, 1.1, 0.9, 1.1, 0.9
  1026,'',  13.8, 2, 1, 1, 1, 1, -118.33807, 1.1, 0.9, 1.1, 0.9
  1027,'',   115, 1, 1, 1, 1, 1, -120.21065, 1.1, 0.9, 1.1, 0.9
  1028,'',   115, 1, 1, 1, 1, 1.019842, -112.55115, 1.1, 0.9, 1.1, 0.9
  1029,'',   115, 1, 1, 1, 1, 0.99857059, -120.64725, 1.1, 0.9, 1.1, 0.9
  1030,'',   115, 1, 1, 1, 1, 1.0164942, -115.63843, 1.1, 0.9, 1.1, 0.9
  1031,'',   115, 1, 1, 1, 1, 1.0168002, -114.27452, 1.1, 0.9, 1.1, 0.9
  1032,'',   115, 1, 1, 1, 1, 1.0095451, -111.82434, 1.1, 0.9, 1.1, 0.9
  1033,'',   230, 2, 1, 1, 1, 1.0067976, -110.31364, 1.1, 0.9, 1.1, 0.9
  1034,'',   115, 1, 1, 1, 1, 0.99946022, -122.93369, 1.1, 0.9, 1.1, 0.9
  1035,'',  13.8, 2, 1, 1, 1, 1, -122.58374, 1.1, 0.9, 1.1, 0.9
  1036,'',   115, 1, 1, 1, 1, 1.0009898, -115.36, 1.1, 0.9, 1.1, 0.9
  1037,'',   115, 1, 1, 1, 1, 0.9855907, -111.51756, 1.1, 0.9, 1.1, 0.9
  1038,'',   115, 1, 1, 1, 1, 1.0114318, -111.66054, 1.1, 0.9, 1.1, 0.9
  1039,'',    22, 2, 1, 1, 1, 1, -110.51103, 1.1, 0.9, 1.1, 0.9
  1040,'',   115, 1, 1, 1, 1, 0.99125601, -114.3288, 1.1, 0.9, 1.1, 0.9
  1041,'',   115, 1, 1, 1, 1, 0.99549476, -122.70269, 1.1, 0.9, 1.1, 0.9
  1042,'',  13.8, 2, 1, 1, 1, 0.99549476, -122.70269, 1.1, 0.9, 1.1, 0.9
  1043,'',  13.8, 2, 1, 1, 1, 1, -122.62739, 1.1, 0.9, 1.1, 0.9
  1044,'',   115, 1, 1, 1, 1, 1.0021228, -121.17306, 1.1, 0.9, 1.1, 0.9
  1045,'',   115, 1, 1, 1, 1, 0.98618865, -112.63634, 1.1, 0.9, 1.1, 0.9
  1046,'',   115, 1, 1, 1, 1, 1.015, -117.81911, 1.1, 0.9, 1.1, 0.9
  1047,'',   115, 1, 1, 1, 1, 1.0052894, -107.85215, 1.1, 0.9, 1.1, 0.9
  1048,'',    18, 2, 1, 1, 1, 1.0052894, -107.85215, 1.1, 0.9, 1.1, 0.9
  1049,'',    18, 2, 1, 1, 1, 1.0052894, -107.85215, 1.1, 0.9, 1.1, 0.9
  1050,'',    18, 2, 1, 1, 1, 1, -102.77284, 1.1, 0.9, 1.1, 0.9
  1051,'',    18, 2, 1, 1, 1, 1, -101.29133, 1.1, 0.9, 1.1, 0.9
  1052,'',    18, 2, 1, 1, 1, 1, -103.62476, 1.1, 0.9, 1.1, 0.9
  1053,'',   230, 2, 1, 1, 1, 1.0121826, -109.36547, 1.1, 0.9, 1.1, 0.9
  1054,'',   115, 1, 1, 1, 1, 0.99879599, -120.86797, 1.1, 0.9, 1.1, 0.9
  1055,'',   115, 1, 1, 1, 1, 1.0047045, -114.23217, 1.1, 0.9, 1.1, 0.9
  1056,'',   115, 1, 1, 1, 1, 1.015, -121.10946, 1.1, 0.9, 1.1, 0.9
  1057,'',    18, 2, 1, 1, 1, 1.015, -121.10946, 1.1, 0.9, 1.1, 0.9
  1058,'',   115, 1, 1, 1, 1, 1.0211048, -112.68048, 1.1, 0.9, 1.1, 0.9
  1059,'',    22, 2, 1, 1, 1, 1.0211048, -112.68048, 1.1, 0.9, 1.1, 0.9
  1060,'',    22, 2, 1, 1, 1, 1.0211048, -112.68048, 1.1, 0.9, 1.1, 0.9
  1061,'',   115, 1, 1, 1, 1, 1.0069589, -120.70607, 1.1, 0.9, 1.1, 0.9
  1062,'',  13.8, 2, 1, 1, 1, 1.0069589, -120.70607, 1.1, 0.9, 1.1, 0.9
  1063,'',  13.8, 2, 1, 1, 1, 1.0069589, -120.70607, 1.1, 0.9, 1.1, 0.9
  1064,'',   115, 1, 1, 1, 1, 0.98453518, -110.94061, 1.1, 0.9, 1.1, 0.9
  1065,'',   115, 1, 1, 1, 1, 0.99873117, -122.45299, 1.1, 0.9, 1.1, 0.9
  1066,'',  13.8, 2, 1, 1, 1, 1, -122.33569, 1.1, 0.9, 1.1, 0.9
  1067,'',   115, 1, 1, 1, 1, 0.99208663, -122.89587, 1.1, 0.9, 1.1, 0.9
  1068,'',   115, 1, 1, 1, 1, 0.98521418, -123.4624, 1.1, 0.9, 1.1, 0.9
  1069,'',   115, 1, 1, 1, 1, 1.0222362, -111.7289, 1.1, 0.9, 1.1, 0.9
  1070,'',  13.8, 2, 1, 1, 1, 1.04, -110.49797, 1.1, 0.9, 1.1, 0.9
  1071,'',   115, 1, 1, 1, 1, 1.0031423, -107.26338, 1.1, 0.9, 1.1, 0.9
  1072,'',    18, 2, 1, 1, 1, 1.01, -97.967126, 1.1, 0.9, 1.1, 0.9
  1073,'',    18, 2, 1, 1, 1, 1.01, -91.652557, 1.1, 0.9, 1.1, 0.9
  1074,'',    18, 2, 1, 1, 1, 1.01, -93.669238, 1.1, 0.9, 1.1, 0.9
  1075,'',    18, 2, 1, 1, 1, 1.01, -96.407158, 1.1, 0.9, 1.1, 0.9
  1076,'',    18, 2, 1, 1, 1, 1.0031423, -107.26338, 1.1, 0.9, 1.1, 0.9
  1077,'',    18, 2, 1, 1, 1, 1.0031423, -107.26338, 1.1, 0.9, 1.1, 0.9
  1078,'',    18, 2, 1, 1, 1, 1.01, -96.928158, 1.1, 0.9, 1.1, 0.9
  1079,'',   500, 2, 1, 1, 1, 1.0358709, -109.5431, 1.1, 0.9, 1.1, 0.9
  1080,'',    18, 2, 1, 1, 1, 1.01, -96.33019, 1.1, 0.9, 1.1, 0.9
  1081,'',   230, 2, 1, 1, 1, 1.0131172, -109.88301, 1.1, 0.9, 1.1, 0.9
  1082,'',   115, 2, 1, 1, 1, 1.011249, -110.88772, 1.1, 0.9, 1.1, 0.9
  1083,'',   115, 1, 1, 1, 1, 1.015, -112.58327, 1.1, 0.9, 1.1, 0.9
  1084,'',   115, 2, 1, 1, 1, 1.0160903, -117.27662, 1.1, 0.9, 1.1, 0.9
  1085,'',   115, 1, 1, 1, 1, 1.0043413, -110.79892, 1.1, 0.9, 1.1, 0.9
  1086,'',   115, 1, 1, 1, 1, 1.0129693, -112.74642, 1.1, 0.9, 1.1, 0.9
  1087,'',   115, 1, 1, 1, 1, 1.0209047, -114.32036, 1.1, 0.9, 1.1, 0.9
  1088,'',   115, 2, 1, 1, 1, 1, -118.08622, 1.1, 0.9, 1.1, 0.9
  1089,'',   115, 1, 1, 1, 1, 0.98092579, -118.23254, 1.1, 0.9, 1.1, 0.9
  1090,'',   115, 2, 1, 1, 1, 1.0060676, -114.10258, 1.1, 0.9, 1.1, 0.9
  1091,'',   161, 1, 1, 1, 1, 1.0169796, -115.89601, 1.1, 0.9, 1.1, 0.9
  2001,'',   161, 1, 1, 1, 1, 0.99994744, -115.40049, 1.1, 0.9, 1.1, 0.9
  2002,'',   500, 1, 1, 1, 1, 1.0080287, -117.41396, 1.1, 0.9, 1.1, 0.9
  2003,'',   161, 1, 1, 1, 1, 1.0055809, -119.65864, 1.1, 0.9, 1.1, 0.9
  2004,'',  13.8, 2, 1, 1, 1, 1.0080287, -117.41396, 1.1, 0.9, 1.1, 0.9
  2005,'',  13.8, 2, 1, 1, 1, 1.0080287, -117.41396, 1.1, 0.9, 1.1, 0.9
  2006,'',  13.8, 2, 1, 1, 1, 1.0080287, -117.41396, 1.1, 0.9, 1.1, 0.9
  2007,'',   161, 1, 1, 1, 1, 1.0003893, -115.1875, 1.1, 0.9, 1.1, 0.9
  2008,'',   161, 1, 1, 1, 1, 1.0141664, -114.56232, 1.1, 0.9, 1.1, 0.9
  2009,'',   161, 1, 1, 1, 1, 1.0021721, -114.94514, 1.1, 0.9, 1.1, 0.9
  2010,'',   161, 1, 1, 1, 1, 1.0044804, -119.83498, 1.1, 0.9, 1.1, 0.9
  2011,'',   500, 1, 1, 1, 1, 1.0391889, -110.34048, 1.1, 0.9, 1.1, 0.9
  2012,'',   161, 1, 1, 1, 1, 1.0291899, -110.14263, 1.1, 0.9, 1.1, 0.9
  2013,'',    18, 2, 1, 1, 1, 1.0311575, -109.07285, 1.1, 0.9, 1.1, 0.9
  2014,'',   161, 1, 1, 1, 1, 1.0110695, -116.02191, 1.1, 0.9, 1.1, 0.9
  2015,'',   161, 1, 1, 1, 1, 0.99824433, -124.30081, 1.1, 0.9, 1.1, 0.9
  2016,'',   161, 1, 1, 1, 1, 1.000868, -125.95096, 1.1, 0.9, 1.1, 0.9
  2017,'',   500, 1, 1, 1, 1, 1.0247736, -111.03575, 1.1, 0.9, 1.1, 0.9
  2018,'',   161, 1, 1, 1, 1, 1.0262353, -110.72673, 1.1, 0.9, 1.1, 0.9
  2019,'',    20, 2, 1, 1, 1, 1.0247736, -111.03575, 1.1, 0.9, 1.1, 0.9
  2020,'',   161, 1, 1, 1, 1, 1.0122947, -112.68449, 1.1, 0.9, 1.1, 0.9
  2021,'',   500, 1, 1, 1, 1, 1.012024, -112.11661, 1.1, 0.9, 1.1, 0.9
  2022,'',   161, 1, 1, 1, 1, 1.0081007, -114.06398, 1.1, 0.9, 1.1, 0.9
  2023,'',  13.8, 2, 1, 1, 1, 1.02, -110.54816, 1.1, 0.9, 1.1, 0.9
  2024,'',  13.8, 2, 1, 1, 1, 1.02, -109.87953, 1.1, 0.9, 1.1, 0.9
  2025,'',   161, 1, 1, 1, 1, 1.0119142, -112.26658, 1.1, 0.9, 1.1, 0.9
  2026,'',   161, 1, 1, 1, 1, 1.0293948, -110.61391, 1.1, 0.9, 1.1, 0.9
  2027,'',   161, 1, 1, 1, 1, 1.0003018, -115.84167, 1.1, 0.9, 1.1, 0.9
  2028,'',   161, 1, 1, 1, 1, 1.0044317, -114.82977, 1.1, 0.9, 1.1, 0.9
  2029,'',   161, 1, 1, 1, 1, 1.0153563, -116.11382, 1.1, 0.9, 1.1, 0.9
  2030,'',   161, 1, 1, 1, 1, 0.98572258, -119.61056, 1.1, 0.9, 1.1, 0.9
  2031,'',   161, 1, 1, 1, 1, 1.0215826, -118.17885, 1.1, 0.9, 1.1, 0.9
  2032,'',   161, 1, 1, 1, 1, 1.0024601, -114.56919, 1.1, 0.9, 1.1, 0.9
  2033,'',   161, 1, 1, 1, 1, 0.98786441, -121.20978, 1.1, 0.9, 1.1, 0.9
  2034,'',   161, 1, 1, 1, 1, 0.99901429, -125.2006, 1.1, 0.9, 1.1, 0.9
  2035,'',   161, 1, 1, 1, 1, 1.0167513, -119.50799, 1.1, 0.9, 1.1, 0.9
  2036,'',   161, 1, 1, 1, 1, 1.0110688, -112.67135, 1.1, 0.9, 1.1, 0.9
  2037,'',   161, 1, 1, 1, 1, 1.0056263, -124.47729, 1.1, 0.9, 1.1, 0.9
  2038,'',   161, 1, 1, 1, 1, 1.0026869, -120.10802, 1.1, 0.9, 1.1, 0.9
  2039,'',   161, 1, 1, 1, 1, 0.99157207, -122.07685, 1.1, 0.9, 1.1, 0.9
  2040,'',   161, 1, 1, 1, 1, 1.0055536, -114.72069, 1.1, 0.9, 1.1, 0.9
  2041,'',   161, 1, 1, 1, 1, 1.0267719, -109.17303, 1.1, 0.9, 1.1, 0.9
  2042,'',    18, 2, 1, 1, 1, 1.018319, -107.80071, 1.1, 0.9, 1.1, 0.9
  2043,'',   161, 1, 1, 1, 1, 0.99962607, -125.53983, 1.1, 0.9, 1.1, 0.9
  2044,'',   161, 1, 1, 1, 1, 0.99905434, -123.57404, 1.1, 0.9, 1.1, 0.9
  2045,'',   161, 1, 1, 1, 1, 1.0101217, -113.17246, 1.1, 0.9, 1.1, 0.9
  2046,'',   161, 1, 1, 1, 1, 0.99875267, -124.77982, 1.1, 0.9, 1.1, 0.9
  2047,'',   161, 1, 1, 1, 1, 1.0037528, -120.56131, 1.1, 0.9, 1.1, 0.9
  2048,'',   161, 1, 1, 1, 1, 1.0185073, -117.73851, 1.1, 0.9, 1.1, 0.9
  2049,'',   161, 1, 1, 1, 1, 1.0086072, -116.37395, 1.1, 0.9, 1.1, 0.9
  2050,'',   161, 1, 1, 1, 1, 0.99174344, -118.75615, 1.1, 0.9, 1.1, 0.9
  2051,'',   161, 1, 1, 1, 1, 0.99827492, -119.10584, 1.1, 0.9, 1.1, 0.9
  2052,'',   161, 1, 1, 1, 1, 1.0171407, -112.96955, 1.1, 0.9, 1.1, 0.9
  2053,'',   161, 1, 1, 1, 1, 0.99253086, -119.41876, 1.1, 0.9, 1.1, 0.9
  2054,'',   500, 1, 1, 1, 1, 1.0201308, -110.80292, 1.1, 0.9, 1.1, 0.9
  2055,'',   161, 1, 1, 1, 1, 1.0163559, -111.83695, 1.1, 0.9, 1.1, 0.9
  2056,'',    18, 2, 1, 1, 1, 1.0201308, -110.80292, 1.1, 0.9, 1.1, 0.9
  2057,'',    18, 2, 1, 1, 1, 1.0060699, -105.47333, 1.1, 0.9, 1.1, 0.9
  2058,'',   161, 1, 1, 1, 1, 1.025402, -109.17381, 1.1, 0.9, 1.1, 0.9
  2059,'',  13.8, 2, 1, 1, 1, 1.0140246, -109.05638, 1.1, 0.9, 1.1, 0.9
  2060,'',   161, 1, 1, 1, 1, 0.99501323, -117.45795, 1.1, 0.9, 1.1, 0.9
  2061,'',   161, 1, 1, 1, 1, 1.0147523, -117.08694, 1.1, 0.9, 1.1, 0.9
  2062,'',    18, 2, 1, 1, 1, 1.02, -116.54356, 1.1, 0.9, 1.1, 0.9
  2063,'',   161, 1, 1, 1, 1, 1, -124.10942, 1.1, 0.9, 1.1, 0.9
  2064,'',   161, 1, 1, 1, 1, 1.0009626, -115.73934, 1.1, 0.9, 1.1, 0.9
  2065,'',   161, 1, 1, 1, 1, 1, -125.12591, 1.1, 0.9, 1.1, 0.9
  2066,'',   161, 1, 1, 1, 1, 1.0202454, -118.74818, 1.1, 0.9, 1.1, 0.9
  2067,'',   161, 1, 1, 1, 1, 1.0085003, -112.57714, 1.1, 0.9, 1.1, 0.9
  2068,'',   161, 1, 1, 1, 1, 1.0085486, -112.24201, 1.1, 0.9, 1.1, 0.9
  2069,'',   161, 1, 1, 1, 1, 1.015, -125.19317, 1.1, 0.9, 1.1, 0.9
  2070,'',   161, 1, 1, 1, 1, 1.0096202, -112.06803, 1.1, 0.9, 1.1, 0.9
  2071,'',    18, 2, 1, 1, 1, 1, -111.67653, 1.1, 0.9, 1.1, 0.9
  2072,'',   161, 1, 1, 1, 1, 1.0105116, -123.40177, 1.1, 0.9, 1.1, 0.9
  2073,'',   161, 1, 1, 1, 1, 1.0227103, -117.91204, 1.1, 0.9, 1.1, 0.9
  2074,'',   115, 1, 1, 1, 1, 1.018576, -118.54735, 1.1, 0.9, 1.1, 0.9
  2075,'',   115, 1, 1, 1, 1, 1.018576, -118.54735, 1.1, 0.9, 1.1, 0.9
  2076,'',    24, 2, 1, 1, 1, 1.0270677, -117.871, 1.1, 0.9, 1.1, 0.9
  2077,'',   161, 1, 1, 1, 1, 1.0128583, -123.61011, 1.1, 0.9, 1.1, 0.9
  2078,'',  13.8, 2, 1, 1, 1, 1.02, -122.96376, 1.1, 0.9, 1.1, 0.9
  2079,'',   161, 1, 1, 1, 1, 1.011683, -119.12306, 1.1, 0.9, 1.1, 0.9
  2080,'',   161, 1, 1, 1, 1, 0.99913357, -121.05775, 1.1, 0.9, 1.1, 0.9
  2081,'',   161, 1, 1, 1, 1, 0.99747506, -120.87216, 1.1, 0.9, 1.1, 0.9
  2082,'',   161, 1, 1, 1, 1, 1.0075331, -113.37414, 1.1, 0.9, 1.1, 0.9
  2083,'',    20, 2, 1, 1, 1, 1.02, -111.79764, 1.1, 0.9, 1.1, 0.9
  2084,'',    20, 2, 1, 1, 1, 1.0075331, -113.37414, 1.1, 0.9, 1.1, 0.9
  2085,'',    20, 2, 1, 1, 1, 1.0075331, -113.37414, 1.1, 0.9, 1.1, 0.9
  2086,'',   161, 1, 1, 1, 1, 0.99471906, -121.71362, 1.1, 0.9, 1.1, 0.9
  2087,'',   161, 1, 1, 1, 1, 1.0223881, -118.23823, 1.1, 0.9, 1.1, 0.9
  2088,'',   161, 1, 1, 1, 1, 1.0086268, -112.17131, 1.1, 0.9, 1.1, 0.9
  2089,'',    24, 2, 1, 1, 1, 1, -112.06243, 1.1, 0.9, 1.1, 0.9
  2090,'',   161, 1, 1, 1, 1, 1.0004479, -116.48365, 1.1, 0.9, 1.1, 0.9
  2091,'',   161, 1, 1, 1, 1, 1.0093171, -120.17661, 1.1, 0.9, 1.1, 0.9
  2092,'',   161, 1, 1, 1, 1, 1.0003758, -122.4058, 1.1, 0.9, 1.1, 0.9
  2093,'',   161, 1, 1, 1, 1, 1.0283459, -110.4235, 1.1, 0.9, 1.1, 0.9
  2094,'',  13.8, 2, 1, 1, 1, 1.0283459, -110.4235, 1.1, 0.9, 1.1, 0.9
  2095,'',  13.8, 2, 1, 1, 1, 1.0283459, -110.4235, 1.1, 0.9, 1.1, 0.9
  2096,'',   500, 1, 1, 1, 1, 1, -111.47671, 1.1, 0.9, 1.1, 0.9
  2097,'',   230, 1, 1, 1, 1, 1.0037493, -111.7696, 1.1, 0.9, 1.1, 0.9
  2098,'',   161, 1, 1, 1, 1, 1.0167026, -115.23554, 1.1, 0.9, 1.1, 0.9
  2099,'',    18, 2, 1, 1, 1, 1.0007466, -111.43129, 1.1, 0.9, 1.1, 0.9
  2100,'',    18, 2, 1, 1, 1, 1.013506, -110.64988, 1.1, 0.9, 1.1, 0.9
  2101,'',   500, 1, 1, 1, 1, 1.0075259, -118.66291, 1.1, 0.9, 1.1, 0.9
  2102,'',   161, 1, 1, 1, 1, 1.0069424, -120.41831, 1.1, 0.9, 1.1, 0.9
  2103,'',    20, 2, 1, 1, 1, 1.0075259, -118.66291, 1.1, 0.9, 1.1, 0.9
  2104,'',    20, 2, 1, 1, 1, 1.0075259, -118.66291, 1.1, 0.9, 1.1, 0.9
  2105,'',    20, 2, 1, 1, 1, 1.0075259, -118.66291, 1.1, 0.9, 1.1, 0.9
  2106,'',   161, 1, 1, 1, 1, 0.98598917, -121.90714, 1.1, 0.9, 1.1, 0.9
  2107,'',   161, 1, 1, 1, 1, 1.0017747, -121.36999, 1.1, 0.9, 1.1, 0.9
  2108,'',   161, 1, 1, 1, 1, 1.0165041, -117.39234, 1.1, 0.9, 1.1, 0.9
  2109,'',   161, 1, 1, 1, 1, 1.0002889, -115.22631, 1.1, 0.9, 1.1, 0.9
...
0 / END OF BUS DATA, BEGIN LOAD DATA
1001, '1', 1, 1, 1, 19.969, 5.658, 0, 0, 0, 0, 1, 1, 0
1002, '1', 1, 1, 1, 14.812, 4.197, 0, 0, 0, 0, 1, 1, 0
1007, '1', 1, 1, 1, 6.734, 1.908, 0, 0, 0, 0, 1, 1, 0
1012, '1', 1, 1, 1, 2.868, 0.813, 0, 0, 0, 0, 1, 1, 0
1013, '1', 1, 1, 1, 28.084, 7.957, 0, 0, 0, 0, 1, 1, 0
1014, '1', 1, 1, 1, 2.133, 0.604, 0, 0, 0, 0, 1, 1, 0
1015, '1', 1, 1, 1, 7.216, 2.044, 0, 0, 0, 0, 1, 1, 0
1016, '1', 1, 1, 1, 2.776, 0.787, 0, 0, 0, 0, 1, 1, 0
1017, '1', 1, 1, 1, 17.628, 4.995, 0, 0, 0, 0, 1, 1, 0
1018, '1', 1, 1, 1, 0.066, 0.019, 0, 0, 0, 0, 1, 1, 0
1019, '1', 1, 1, 1, 59.361, 16.819, 0, 0, 0, 0, 1, 1, 0
1024, '1', 1, 1, 1, 60.575, 17.163, 0, 0, 0, 0, 1, 1, 0
1027, '1', 1, 1, 1, 97.255, 27.555, 0, 0, 0, 0, 1, 1, 0
1028, '1', 1, 1, 1, 9.623, 2.727, 0, 0, 0, 0, 1, 1, 0
1029, '1', 1, 1, 1, 79.933, 22.648, 0, 0, 0, 0, 1, 1, 0
1030, '1', 1, 1, 1, 23.664, 6.704, 0, 0, 0, 0, 1, 1, 0
1031, '1', 1, 1, 1, 8.885, 2.517, 0, 0, 0, 0, 1, 1, 0
1036, '1', 1, 1, 1, 13.064, 3.702, 0, 0, 0, 0, 1, 1, 0
1037, '1', 1, 1, 1, 98.241, 27.835, 0, 0, 0, 0, 1, 1, 0
1040, '1', 1, 1, 1, 42.624, 12.077, 0, 0, 0, 0, 1, 1, 0
1044, '1', 1, 1, 1, 14.108, 3.997, 0, 0, 0, 0, 1, 1, 0
1045, '1', 1, 1, 1, 94.71, 26.834, 0, 0, 0, 0, 1, 1, 0
1046, '1', 1, 1, 1, 10.652, 3.018, 0, 0, 0, 0, 1, 1, 0
1054, '1', 1, 1, 1, 14.403, 4.081, 0, 0, 0, 0, 1, 1, 0
1055, '1', 1, 1, 1, 3.823, 1.083, 0, 0, 0, 0, 1, 1, 0
1058, '1', 1, 1, 1, 12.929, 3.663, 0, 0, 0, 0, 1, 1, 0
1064, '1', 1, 1, 1, 118.921, 33.694, 0, 0, 0, 0, 1, 1, 0
1067, '1', 1, 1, 1, 97.581, 27.648, 0, 0, 0, 0, 1, 1, 0
1068, '1', 1, 1, 1, 57.081, 16.173, 0, 0, 0, 0, 1, 1, 0
1071, '1', 1, 1, 1, 87.889, 24.902, 0, 0, 0, 0, 1, 1, 0
1083, '1', 1, 1, 1, 38.384, 10.875, 0, 0, 0, 0, 1, 1, 0
1085, '1', 1, 1, 1, 20.465, 5.799, 0, 0, 0, 0, 1, 1, 0
1086, '1', 1, 1, 1, 38.121, 10.801, 0, 0, 0, 0, 1, 1, 0
1087, '1', 1, 1, 1, 0.873, 0.247, 0, 0, 0, 0, 1, 1, 0
1089, '1', 1, 1, 1, 39.018, 11.055, 0, 0, 0, 0, 1, 1, 0
1091, '1', 1, 1, 1, 11.168, 3.164, 0, 0, 0, 0, 1, 1, 0
2001, '1', 1, 1, 1, 47.293, 13.399, 0, 0, 0, 0, 1, 1, 0
2007, '1', 1, 1, 1, 9.33, 2.644, 0, 0, 0, 0, 1, 1, 0
2008, '1', 1, 1, 1, 7.884, 2.234, 0, 0, 0, 0, 1, 1, 0
2009, '1', 1, 1, 1, 38.274, 10.844, 0, 0, 0, 0, 1, 1, 0
2010, '1', 1, 1, 1, 55.556, 15.74, 0, 0, 0, 0, 1, 1, 0
2014, '1', 1, 1, 1, 24.868, 7.046, 0, 0, 0, 0, 1, 1, 0
2015, '1', 1, 1, 1, 4.583, 1.298, 0, 0, 0, 0, 1, 1, 0
2016, '1', 1, 1, 1, 67.743, 19.194, 0, 0, 0, 0, 1, 1, 0
2020, '1', 1, 1, 1, 46.917, 13.293, 0, 0, 0, 0, 1, 1, 0
2022, '1', 1, 1, 1, 11.31, 3.205, 0, 0, 0, 0, 1, 1, 0
2025, '1', 1, 1, 1, 38.746, 10.978, 0, 0, 0, 0, 1, 1, 0
2026, '1', 1, 1, 1, 18.161, 5.147, 0, 0, 0, 0, 1, 1, 0
2027, '1', 1, 1, 1, 3.477, 0.985, 0, 0, 0, 0, 1, 1, 0
2028, '1', 1, 1, 1, 13.925, 3.945, 0, 0, 0, 0, 1, 1, 0
2029, '1', 1, 1, 1, 3.131, 0.887, 0, 0, 0, 0, 1, 1, 0
2030, '1', 1, 1, 1, 46.108, 13.064, 0, 0, 0, 0, 1, 1, 0
2031, '1', 1, 1, 1, 5.639, 1.597, 0, 0, 0, 0, 1, 1, 0
2032, '1', 1, 1, 1, 3.28, 0.929, 0, 0, 0, 0, 1, 1, 0
2033, '1', 1, 1, 1, 13.273, 3.761, 0, 0, 0, 0, 1, 1, 0
2034, '1', 1, 1, 1, 5.222, 1.48, 0, 0, 0, 0, 1, 1, 0
2035, '1', 1, 1, 1, 4.58, 1.298, 0, 0, 0, 0, 1, 1, 0
2036, '1', 1, 1, 1, 40.671, 11.523, 0, 0, 0, 0, 1, 1, 0
2037, '1', 1, 1, 1, 3.424, 0.97, 0, 0, 0, 0, 1, 1, 0
2038, '1', 1, 1, 1, 2.547, 0.722, 0, 0, 0, 0, 1, 1, 0
2039, '1', 1, 1, 1, 5.437, 1.54, 0, 0, 0, 0, 1, 1, 0
2040, '1', 1, 1, 1, 15.553, 4.407, 0, 0, 0, 0, 1, 1, 0
2043, '1', 1, 1, 1, 4.143, 1.174, 0, 0, 0, 0, 1, 1, 0
2044, '1', 1, 1, 1, 26.802, 7.594, 0, 0, 0, 0, 1, 1, 0
2045, '1', 1, 1, 1, 22.108, 6.264, 0, 0, 0, 0, 1, 1, 0
2046, '1', 1, 1, 1, 21.647, 6.133, 0, 0, 0, 0, 1, 1, 0
2047, '1', 1, 1, 1, 14.626, 4.144, 0, 0, 0, 0, 1, 1, 0
2048, '1', 1, 1, 1, 6.276, 1.778, 0, 0, 0, 0, 1, 1, 0
2049, '1', 1, 1, 1, 11.316, 3.206, 0, 0, 0, 0, 1, 1, 0
2050, '1', 1, 1, 1, 3.577, 1.013, 0, 0, 0, 0, 1, 1, 0
2051, '1', 1, 1, 1, 17.457, 4.946, 0, 0, 0, 0, 1, 1, 0
2052, '1', 1, 1, 1, 24.291, 6.882, 0, 0, 0, 0, 1, 1, 0
2053, '1', 1, 1, 1, 28.492, 8.073, 0, 0, 0, 0, 1, 1, 0
2055, '1', 1, 1, 1, 48.528, 13.75, 0, 0, 0, 0, 1, 1, 0
2060, '1', 1, 1, 1, 3.711, 1.052, 0, 0, 0, 0, 1, 1, 0
2063, '1', 1, 1, 1, 64.172, 18.182, 0, 0, 0, 0, 1, 1, 0
2064, '1', 1, 1, 1, 9.826, 2.784, 0, 0, 0, 0, 1, 1, 0
2065, '1', 1, 1, 1, 76.635, 21.713, 0, 0, 0, 0, 1, 1, 0
2066, '1', 1, 1, 1, 6.957, 1.971, 0, 0, 0, 0, 1, 1, 0
2067, '1', 1, 1, 1, 52.779, 14.954, 0, 0, 0, 0, 1, 1, 0
2068, '1', 1, 1, 1, 5.633, 1.596, 0, 0, 0, 0, 1, 1, 0
2069, '1', 1, 1, 1, 21.441, 6.075, 0, 0, 0, 0, 1, 1, 0
2072, '1', 1, 1, 1, 9.491, 2.689, 0, 0, 0, 0, 1, 1, 0
2079, '1', 1, 1, 1, 4.38, 1.241, 0, 0, 0, 0, 1, 1, 0
2080, '1', 1, 1, 1, 16.559, 4.692, 0, 0, 0, 0, 1, 1, 0
2081, '1', 1, 1, 1, 4.366, 1.237, 0, 0, 0, 0, 1, 1, 0
2082, '1', 1, 1, 1, 57.732, 16.357, 0, 0, 0, 0, 1, 1, 0
2086, '1', 1, 1, 1, 2.145, 0.608, 0, 0, 0, 0, 1, 1, 0
2087, '1', 1, 1, 1, 7.722, 2.188, 0, 0, 0, 0, 1, 1, 0
2090, '1', 1, 1, 1, 2.371, 0.672, 0, 0, 0, 0, 1, 1, 0
2091, '1', 1, 1, 1, 16.671, 4.723, 0, 0, 0, 0, 1, 1, 0
2092, '1', 1, 1, 1, 23.577, 6.68, 0, 0, 0, 0, 1, 1, 0
2106, '1', 1, 1, 1, 14.086, 3.991, 0, 0, 0, 0, 1, 1, 0
2107, '1', 1, 1, 1, 72.519, 20.547, 0, 0, 0, 0, 1, 1, 0
2108, '1', 1, 1, 1, 2.098, 0.594, 0, 0, 0, 0, 1, 1, 0
2109, '1', 1, 1, 1, 33.066, 9.369, 0, 0, 0, 0, 1, 1, 0
2110, '1', 1, 1, 1, 8.4, 2.38, 0, 0, 0, 0, 1, 1, 0
2111, '1', 1, 1, 1, 13.646, 3.866, 0, 0, 0, 0, 1, 1, 0
2112, '1', 1, 1, 1, 4.442, 1.259, 0, 0, 0, 0, 1, 1, 0
2114, '1', 1, 1, 1, 69.218, 19.612, 0, 0, 0, 0, 1, 1, 0
2121, '1', 1, 1, 1, 2.283, 0.647, 0, 0, 0, 0, 1, 1, 0
2122, '1', 1, 1, 1, 6.575, 1.863, 0, 0, 0, 0, 1, 1, 0
2124, '1', 1, 1, 1, 20.817, 5.898, 0, 0, 0, 0, 1, 1, 0
2125, '1', 1, 1, 1, 3.967, 1.124, 0, 0, 0, 0, 1, 1, 0
2126, '1', 1, 1, 1, 13.922, 3.944, 0, 0, 0, 0, 1, 1, 0
2129, '1', 1, 1, 1, 6.487, 1.838, 0, 0, 0, 0, 1, 1, 0
2132, '1', 1, 1, 1, 11.677, 3.309, 0, 0, 0, 0, 1, 1, 0
2133, '1', 1, 1, 1, 5.554, 1.574, 0, 0, 0, 0, 1, 1, 0
3002, '1', 1, 1, 1, 110.519, 31.314, 0, 0, 0, 0, 1, 1, 0
3005, '1', 1, 1, 1, 7.189, 2.037, 0, 0, 0, 0, 1, 1, 0
3006, '1', 1, 1, 1, 7.195, 2.038, 0, 0, 0, 0, 1, 1, 0
3007, '1', 1, 1, 1, 14.654, 4.152, 0, 0, 0, 0, 1, 1, 0
3008, '1', 1, 1, 1, 19.398, 5.497, 0, 0, 0, 0, 1, 1, 0
3009, '1', 1, 1, 1, 12.28, 3.479, 0, 0, 0, 0, 1, 1, 0
3010, '1', 1, 1, 1, 4.574, 1.296, 0, 0, 0, 0, 1, 1, 0
3011, '1', 1, 1, 1, 26.575, 7.529, 0, 0, 0, 0, 1, 1, 0
3012, '1', 1, 1, 1, 0.552, 0.156, 0, 0, 0, 0, 1, 1, 0
3013, '1', 1, 1, 1, 63.218, 17.912, 0, 0, 0, 0, 1, 1, 0
3014, '1', 1, 1, 1, 21.546, 6.105, 0, 0, 0, 0, 1, 1, 0
3015, '1', 1, 1, 1, 5.253, 1.488, 0, 0, 0, 0, 1, 1, 0
3021, '1', 1, 1, 1, 1.901, 0.539, 0, 0, 0, 0, 1, 1, 0
3022, '1', 1, 1, 1, 24.081, 6.823, 0, 0, 0, 0, 1, 1, 0
3023, '1', 1, 1, 1, 10.191, 2.887, 0, 0, 0, 0, 1, 1, 0
3024, '1', 1, 1, 1, 9.921, 2.811, 0, 0, 0, 0, 1, 1, 0
3025, '1', 1, 1, 1, 13.39, 3.794, 0, 0, 0, 0, 1, 1, 0
3029, '1', 1, 1, 1, 4.765, 1.35, 0, 0, 0, 0, 1, 1, 0
3030, '1', 1, 1, 1, 127.029, 35.992, 0, 0, 0, 0, 1, 1, 0
3031, '1', 1, 1, 1, 14.427, 4.088, 0, 0, 0, 0, 1, 1, 0
3032, '1', 1, 1, 1, 71.353, 20.217, 0, 0, 0, 0, 1, 1, 0
3035, '1', 1, 1, 1, 3.393, 0.961, 0, 0, 0, 0, 1, 1, 0
3036, '1', 1, 1, 1, 5.682, 1.609, 0, 0, 0, 0, 1, 1, 0
3040, '1', 1, 1, 1, 14.304, 4.053, 0, 0, 0, 0, 1, 1, 0
3042, '1', 1, 1, 1, 8.572, 2.429, 0, 0, 0, 0, 1, 1, 0
3049, '1', 1, 1, 1, 10.364, 2.937, 0, 0, 0, 0, 1, 1, 0
3051, '1', 1, 1, 1, 142.277, 40.312, 0, 0, 0, 0, 1, 1, 0
3052, '1', 1, 1, 1, 7.908, 2.241, 0, 0, 0, 0, 1, 1, 0
3066, '1', 1, 1, 1, 21.578, 6.114, 0, 0, 0, 0, 1, 1, 0
3069, '1', 1, 1, 1, 3.734, 1.058, 0, 0, 0, 0, 1, 1, 0
3072, '1', 1, 1, 1, 5.861, 1.661, 0, 0, 0, 0, 1, 1, 0
3075, '1', 1, 1, 1, 11.93, 3.38, 0, 0, 0, 0, 1, 1, 0
3076, '1', 1, 1, 1, 10.57, 2.995, 0, 0, 0, 0, 1, 1, 0
3077, '1', 1, 1, 1, 67.231, 19.049, 0, 0, 0, 0, 1, 1, 0
3093, '1', 1, 1, 1, 4.941, 1.4, 0, 0, 0, 0, 1, 1, 0
3099, '1', 1, 1, 1, 11.827, 3.351, 0, 0, 0, 0, 1, 1, 0
3100, '1', 1, 1, 1, 8.349, 2.366, 0, 0, 0, 0, 1, 1, 0
3101, '1', 1, 1, 1, 9.236, 2.617, 0, 0, 0, 0, 1, 1, 0
3102, '1', 1, 1, 1, 73.694, 20.88, 0, 0, 0, 0, 1, 1, 0
3103, '1', 1, 1, 1, 38.502, 10.909, 0, 0, 0, 0, 1, 1, 0
3107, '1', 1, 1, 1, 14.56, 4.125, 0, 0, 0, 0, 1, 1, 0
3108, '1', 1, 1, 1, 23.035, 6.527, 0, 0, 0, 0, 1, 1, 0
3114, '1', 1, 1, 1, 96.268, 27.275, 0, 0, 0, 0, 1, 1, 0
3115, '1', 1, 1, 1, 9.377, 2.657, 0, 0, 0, 0, 1, 1, 0
3123, '1', 1, 1, 1, 64.696, 18.33, 0, 0, 0, 0, 1, 1, 0
3124, '1', 1, 1, 1, 63.2, 17.907, 0, 0, 0, 0, 1, 1, 0
3125, '1', 1, 1, 1, 89.364, 25.32, 0, 0, 0, 0, 1, 1, 0
3126, '1', 1, 1, 1, 9.75, 2.763, 0, 0, 0, 0, 1, 1, 0
3128, '1', 1, 1, 1, 2.762, 0.782, 0, 0, 0, 0, 1, 1, 0
3130, '1', 1, 1, 1, 90.243, 25.569, 0, 0, 0, 0, 1, 1, 0
3132, '1', 1, 1, 1, 9.366, 2.654, 0, 0, 0, 0, 1, 1, 0
3136, '1', 1, 1, 1, 45.982, 13.028, 0, 0, 0, 0, 1, 1, 0
3138, '1', 1, 1, 1, 10.72, 3.038, 0, 0, 0, 0, 1, 1, 0
3139, '1', 1, 1, 1, 14.606, 4.139, 0, 0, 0, 0, 1, 1, 0
3140, '1', 1, 1, 1, 0.217, 0.062, 0, 0, 0, 0, 1, 1, 0
3142, '1', 1, 1, 1, 6.921, 1.961, 0, 0, 0, 0, 1, 1, 0
3143, '1', 1, 1, 1, 5.635, 1.596, 0, 0, 0, 0, 1, 1, 0
3144, '1', 1, 1, 1, 5.44, 1.542, 0, 0, 0, 0, 1, 1, 0
3145, '1', 1, 1, 1, 2.879, 0.816, 0, 0, 0, 0, 1, 1, 0
3146, '1', 1, 1, 1, 11.787, 3.34, 0, 0, 0, 0, 1, 1, 0
3147, '1', 1, 1, 1, 34.037, 9.644, 0, 0, 0, 0, 1, 1, 0
4002, '1', 1, 1, 1, 1.004, 0.284, 0, 0, 0, 0, 1, 1, 0
4003, '1', 1, 1, 1, 126.792, 35.924, 0, 0, 0, 0, 1, 1, 0
4005, '1', 1, 1, 1, 163.493, 46.323, 0, 0, 0, 0, 1, 1, 0
4006, '1', 1, 1, 1, 2.743, 0.777, 0, 0, 0, 0, 1, 1, 0
4007, '1', 1, 1, 1, 182.934, 51.831, 0, 0, 0, 0, 1, 1, 0
4008, '1', 1, 1, 1, 32.365, 9.17, 0, 0, 0, 0, 1, 1, 0
4011, '1', 1, 1, 1, 15.987, 4.53, 0, 0, 0, 0, 1, 1, 0
4012, '1', 1, 1, 1, 13.686, 3.878, 0, 0, 0, 0, 1, 1, 0
4013, '1', 1, 1, 1, 91.985, 26.063, 0, 0, 0, 0, 1, 1, 0
4015, '1', 1, 1, 1, 159.178, 45.1, 0, 0, 0, 0, 1, 1, 0
4016, '1', 1, 1, 1, 6.221, 1.763, 0, 0, 0, 0, 1, 1, 0
4017, '1', 1, 1, 1, 89.209, 25.276, 0, 0, 0, 0, 1, 1, 0
4018, '1', 1, 1, 1, 7.109, 2.014, 0, 0, 0, 0, 1, 1, 0
4019, '1', 1, 1, 1, 135.293, 38.333, 0, 0, 0, 0, 1, 1, 0
4020, '1', 1, 1, 1, 117.349, 33.249, 0, 0, 0, 0, 1, 1, 0
4021, '1', 1, 1, 1, 31.845, 9.023, 0, 0, 0, 0, 1, 1, 0
4022, '1', 1, 1, 1, 5.543, 1.571, 0, 0, 0, 0, 1, 1, 0
4023, '1', 1, 1, 1, 5.044, 1.429, 0, 0, 0, 0, 1, 1, 0
4027, '1', 1, 1, 1, 64.862, 18.377, 0, 0, 0, 0, 1, 1, 0
4031, '1', 1, 1, 1, 2.737, 0.776, 0, 0, 0, 0, 1, 1, 0
4032, '1', 1, 1, 1, 91.029, 25.792, 0, 0, 0, 0, 1, 1, 0
4033, '1', 1, 1, 1, 125.752, 35.63, 0, 0, 0, 0, 1, 1, 0
4034, '1', 1, 1, 1, 37.493, 10.623, 0, 0, 0, 0, 1, 1, 0
4035, '1', 1, 1, 1, 78.849, 22.341, 0, 0, 0, 0, 1, 1, 0
4036, '1', 1, 1, 1, 34.932, 9.898, 0, 0, 0, 0, 1, 1, 0
4037, '1', 1, 1, 1, 28.609, 8.106, 0, 0, 0, 0, 1, 1, 0
4038, '1', 1, 1, 1, 82.976, 23.51, 0, 0, 0, 0, 1, 1, 0
4040, '1', 1, 1, 1, 224.775, 63.686, 0, 0, 0, 0, 1, 1, 0
4042, '1', 1, 1, 1, 214.331, 60.727, 0, 0, 0, 0, 1, 1, 0
4043, '1', 1, 1, 1, 2.465, 0.698, 0, 0, 0, 0, 1, 1, 0
4048, '1', 1, 1, 1, 13.052, 3.698, 0, 0, 0, 0, 1, 1, 0
...
0 / END OF LOAD DATA, BEGIN FIXED SHUNT DATA
8005, '1', 1, 0, 185.751
0 / END OF FIXED SHUNT DATA, BEGIN GENERATOR DATA
1004, '1', 3.2, -30.38, 44.94, -30.38, 1.015074, 0, 0, 0, 1.0, 0, 0, 1, 1, 1, 3.2, 0, 1, 1, 0, 1, 0, 1, 0, 1, 0, 1
1006, '1', 3.2, -4.94, 7.31, -4.94, 1, 0, 0, 0, 1.0, 0, 0, 1, 1, 1, 3.2, 0, 1, 1, 0, 1, 0, 1, 0, 1, 0, 1
1009, '1', 31.3, -11.88, 17.57, -11.88, 1.0079334, 0, 0, 0, 1.0, 0, 0, 1, 1, 1, 31.3, 0, 1, 1, 0, 1, 0, 1, 0, 1, 0, 1
1011, '1', 7.1, 0, 0, 0, 1.0343288, 0, 0, 0, 1.0, 0, 0, 1, 1, 1, 7.1, 0, 1, 1, 0, 1, 0, 1, 0, 1, 0, 1
1021, '1', 7.5, -28.73, 42.49, -28.73, 1, 0, 0, 0, 1.0, 0, 0, 1, 1, 1, 7.5, 0, 1, 1, 0, 1, 0, 1, 0, 1, 0, 1
1023, '1', 69.6, -25.92, 38.34, -25.92, 1.01, 0, 0, 0, 1.0, 0, 0, 1, 1, 1, 69.6, 0, 1, 1, 0, 1, 0, 1, 0, 1, 0, 1
1026, '1', 7.1, -17.88, 26.45, -17.88, 1, 0, 0, 0, 1.0, 0, 0, 1, 1, 1, 7.1, 0, 1, 1, 0, 1, 0, 1, 0, 1, 0, 1
1033, '1', 41.8, -40.03, 59.21, -40.03, 1.0064885, 0, 0, 0, 1.0, 0, 0, 1, 1, 1, 41.8, 0, 1, 1, 0, 1, 0, 1, 0, 1, 0, 1
1035, '1', 7.2, -12.96, 19.17, -12.96, 1, 0, 0, 0, 1.0, 0, 0, 1, 1, 1, 7.2, 0, 1, 1, 0, 1, 0, 1, 0, 1, 0, 1
1039, '1', 23.3, -21.24, 31.42, -21.24, 1, 0, 0, 0, 1.0, 0, 0, 1, 1, 1, 23.3, 0, 1, 1, 0, 1, 0, 1, 0, 1, 0, 1
1042, '1', 0, 2.699, 25.96, -17.55, 0.99543963, 0, 0, 0, 1.0, 0, 0, 1, 0, 1, 2.3, 0, 1, 1, 0, 1, 0, 1, 0, 1, 0, 1
1043, '1', 1.1, -8.47, 12.52, -8.47, 1, 0, 0, 0, 1.0, 0, 0, 1, 1, 1, 1.1, 0, 1, 1, 0, 1, 0, 1, 0, 1, 0, 1
1048, '1', 97.685, 0.356, 165.53, -36.1, 1.00526, 0, 0, 0, 1.0, 0, 0, 1, 0, 1, 325.2, 97.56, 1, 1, 0, 1, 0, 1, 0, 1, 0, 1
1049, '1', 97.685, 4.57, 165.53, -36.1, 1.00526, 0, 0, 0, 1.0, 0, 0, 1, 0, 1, 325.2, 97.56, 1, 1, 0, 1, 0, 1, 0, 1, 0, 1
1050, '1', 89.4, -9.92, 45.5, -9.92, 1, 0, 0, 0, 1.0, 0, 0, 1, 1, 1, 89.4, 26.82, 1, 1, 0, 1, 0, 1, 0, 1, 0, 1
1051, '1', 89.4, -9.92, 45.5, -9.92, 1, 0, 0, 0, 1.0, 0, 0, 1, 1, 1, 89.4, 26.82, 1, 1, 0, 1, 0, 1, 0, 1, 0, 1
1052, '1', 89.4, -9.92, 45.5, -9.92, 1, 0, 0, 0, 1.0, 0, 0, 1, 1, 1, 89.4, 26.82, 1, 1, 0, 1, 0, 1, 0, 1, 0, 1
1053, '1', 53.709, -19.85, 91.01, -19.85, 1.012113, 0, 0, 0, 1.0, 0, 0, 1, 0, 1, 178.8, 53.64, 1, 1, 0, 1, 0, 1, 0, 1, 0, 1
1057, '1', 0, -11.433, 25.56, -17.28, 1.015, 0, 0, 0, 1.0, 0, 0, 1, 0, 1, 1.2, 0, 1, 1, 0, 1, 0, 1, 0, 1, 0, 1
1059, '1', 5.599, 2.85, 2.85, -0.62, 1.0208881, 0, 0, 0, 1.0, 0, 0, 1, 0, 1, 5.6, 1.68, 1, 1, 0, 1, 0, 1, 0, 1, 0, 1
1060, '1', 2, 1.02, 1.02, -0.22, 1.0208881, 0, 0, 0, 1.0, 0, 0, 1, 0, 1, 2, 0.6, 1, 1, 0, 1, 0, 1, 0, 1, 0, 1
1062, '1', 1.5, 0, 0, 0, 1.0069221, 0, 0, 0, 1.0, 0, 0, 1, 0, 1, 1.5, 0.45, 1, 1, 0, 1, 0, 1, 0, 1, 0, 1
1063, '1', 138.941, 0, 0, 0, 1.0069221, 0, 0, 0, 1.0, 0, 0, 1, 0, 1, 230, 69, 1, 1, 0, 1, 0, 1, 0, 1, 0, 1
1066, '1', 1.7, -20.52, 30.35, -20.52, 1, 0, 0, 0, 1.0, 0, 0, 1, 1, 1, 1.7, 0, 1, 1, 0, 1, 0, 1, 0, 1, 0, 1
1070, '1', 33.7, -23.11, 34.19, -23.11, 1.04, 0, 0, 0, 1.0, 0, 0, 1, 1, 1, 33.7, 0, 1, 1, 0, 1, 0, 1, 0, 1, 0, 1
1072, '1', 192.13, -21.33, 97.8, -21.33, 1.01, 0, 0, 0, 1.0, 0, 0, 1, 1, 1, 192.13, 57.64, 1, 1, 0, 1, 0, 1, 0, 1, 0, 1
1073, '1', 192.13, -21.33, 97.8, -21.33, 1.01, 0, 0, 0, 1.0, 0, 0, 1, 1, 1, 192.13, 57.64, 1, 1, 0, 1, 0, 1, 0, 1, 0, 1
1074, '1', 192.13, -21.33, 97.8, -21.33, 1.01, 0, 0, 0, 1.0, 0, 0, 1, 1, 1, 192.13, 57.64, 1, 1, 0, 1, 0, 1, 0, 1, 0, 1
1075, '1', 192.13, -21.33, 97.8, -21.33, 1.01, 0, 0, 0, 1.0, 0, 0, 1, 1, 1, 192.13, 57.64, 1, 1, 0, 1, 0, 1, 0, 1, 0, 1
1076, '1', 85, 21.396, 97.8, -21.33, 1.0031757, 0, 0, 0, 1.0, 0, 0, 1, 0, 1, 192.13, 57.64, 1, 1, 0, 1, 0, 1, 0, 1, 0, 1
1077, '1', 100.114, 9.664, 97.8, -21.33, 1.0031757, 0, 0, 0, 1.0, 0, 0, 1, 0, 1, 192.13, 57.64, 1, 1, 0, 1, 0, 1, 0, 1, 0, 1
1078, '1', 95.5, -10.6, 48.61, -10.6, 1.01, 0, 0, 0, 1.0, 0, 0, 1, 1, 1, 95.5, 28.65, 1, 1, 0, 1, 0, 1, 0, 1, 0, 1
1079, '1', 95.5, -10.6, 48.61, -10.6, 1.0358709, 0, 0, 0, 1.0, 0, 0, 1, 1, 1, 95.5, 28.65, 1, 1, 0, 1, 0, 1, 0, 1, 0, 1
1080, '1', 95.5, -10.6, 48.61, -10.6, 1.01, 0, 0, 0, 1.0, 0, 0, 1, 1, 1, 95.5, 28.65, 1, 1, 0, 1, 0, 1, 0, 1, 0, 1
1081, '1', 286.443, 26.961, 145.83, -31.8, 1.013019, 0, 0, 0, 1.0, 0, 0, 1, 0, 1, 286.5, 85.95, 1, 1, 0, 1, 0, 1, 0, 1, 0, 1
1082, '1', 39.1, -21.6, 31.95, -21.6, 1.0111735, 0, 0, 0, 1.0, 0, 0, 1, 1, 1, 39.1, 0, 1, 1, 0, 1, 0, 1, 0, 1, 0, 1
1084, '1', 9, -16.63, 24.6, -16.63, 1.0160903, 0, 0, 0, 1.0, 0, 0, 1, 1, 1, 9, 0, 1, 1, 0, 1, 0, 1, 0, 1, 0, 1
1088, '1', 15.7, -10.8, 15.97, -10.8, 1, 0, 0, 0, 1.0, 0, 0, 1, 1, 1, 15.7, 0, 1, 1, 0, 1, 0, 1, 0, 1, 0, 1
1090, '1', 1, -21.96, 32.48, -21.96, 1.0060676, 0, 0, 0, 1.0, 0, 0, 1, 1, 1, 1, 0, 1, 1, 0, 1, 0, 1, 0, 1, 0, 1
1090, '2', 0.2, -5.18, 7.67, -5.18, 1.0060676, 0, 0, 0, 1.0, 0, 0, 1, 1, 1, 0.2, 0, 1, 1, 0, 1, 0, 1, 0, 1, 0, 1
2004, '1', 263.175, 57.925, 199.43, -43.49, 1.0081457, 0, 0, 0, 1.0, 0, 0, 1, 0, 1, 391.8, 117.54, 1, 1, 0, 1, 0, 1, 0, 1, 0, 1
2005, '1', 282.189, 49.878, 199.43, -43.49, 1.0081457, 0, 0, 0, 1.0, 0, 0, 1, 0, 1, 391.8, 117.54, 1, 1, 0, 1, 0, 1, 0, 1, 0, 1
2006, '1', 282.189, 37.704, 199.43, -43.49, 1.0081457, 0, 0, 0, 1.0, 0, 0, 1, 0, 1, 391.8, 117.54, 1, 1, 0, 1, 0, 1, 0, 1, 0, 1
2013, '1', 81.4, -28.89, 42.73, -28.89, 1.0311528, 0, 0, 0, 1.0, 0, 0, 1, 1, 1, 81.4, 0, 1, 1, 0, 1, 0, 1, 0, 1, 0, 1
2019, '1', 80.826, 24.4, 46.43, -31.39, 1.0247736, 0, 0, 0, 1.0, 0, 0, 1, 0, 1, 86.5, 0, 1, 1, 0, 1, 0, 1, 0, 1, 0, 1
2023, '1', 83.33, -9.25, 42.42, -9.25, 1.02, 0, 0, 0, 1.0, 0, 0, 1, 1, 1, 83.33, 25, 1, 1, 0, 1, 0, 1, 0, 1, 0, 1
2024, '1', 166.67, -18.5, 84.83, -18.5, 1.02, 0, 0, 0, 1.0, 0, 0, 1, 1, 1, 166.67, 50, 1, 1, 0, 1, 0, 1, 0, 1, 0, 1
2042, '1', 31.6, -11.46, 16.95, -11.46, 1.018319, 0, 0, 0, 1.0, 0, 0, 1, 1, 1, 31.6, 0, 1, 1, 0, 1, 0, 1, 0, 1, 0, 1
2056, '1', 5.999, -0.73, 2.8, -0.73, 1.0202208, 0, 0, 0, 1.0, 0, 0, 1, 0, 1, 6, 1.8, 1, 1, 0, 1, 0, 1, 0, 1, 0, 1
2057, '1', 720, -87.84, 335.52, -87.84, 1.0060699, 0, 0, 0, 1.0, 0, 0, 1, 1, 1, 720, 216, 1, 1, 0, 1, 0, 1, 0, 1, 0, 1
2059, '1', 1.5, -11.52, 17.04, -11.52, 1.0140246, 0, 0, 0, 1.0, 0, 0, 1, 1, 1, 1.5, 0, 1, 1, 0, 1, 0, 1, 0, 1, 0, 1
2062, '1', 24.4, -19.5, 28.84, -19.5, 1.02, 0, 0, 0, 1.0, 0, 0, 1, 1, 1, 24.4, 0, 1, 1, 0, 1, 0, 1, 0, 1, 0, 1
2071, '1', 11.7, -21.6, 31.95, -21.6, 1, 0, 0, 0, 1.0, 0, 0, 1, 1, 1, 11.7, 0, 1, 1, 0, 1, 0, 1, 0, 1, 0, 1
2076, '1', 1.3, -4.32, 6.39, -4.32, 1.0270677, 0, 0, 0, 1.0, 0, 0, 1, 1, 1, 1.3, 0, 1, 1, 0, 1, 0, 1, 0, 1, 0, 1
2078, '1', 16.6, -16.2, 23.96, -16.2, 1.02, 0, 0, 0, 1.0, 0, 0, 1, 1, 1, 16.6, 0, 1, 1, 0, 1, 0, 1, 0, 1, 0, 1
2083, '1', 20, -2.22, 10.18, -2.22, 1.02, 0, 0, 0, 1.0, 0, 0, 1, 1, 1, 20, 6, 1, 1, 0, 1, 0, 1, 0, 1, 0, 1
2084, '1', 19.996, 4.383, 10.18, -2.22, 1.0075842, 0, 0, 0, 1.0, 0, 0, 1, 0, 1, 20, 6, 1, 1, 0, 1, 0, 1, 0, 1, 0, 1
2085, '1', 39.992, 10.889, 20.36, -4.44, 1.0075842, 0, 0, 0, 1.0, 0, 0, 1, 0, 1, 40, 12, 1, 1, 0, 1, 0, 1, 0, 1, 0, 1
2089, '1', 1.4, -9.73, 14.4, -9.73, 1, 0, 0, 0, 1.0, 0, 0, 1, 1, 1, 1.4, 0, 1, 1, 0, 1, 0, 1, 0, 1, 0, 1
2094, '1', 3.74, -1.44, 2.13, -1.44, 1.0283358, 0, 0, 0, 1.0, 0, 0, 1, 0, 1, 4, 0, 1, 1, 0, 1, 0, 1, 0, 1, 0, 1
2095, '1', 29.631, -11.45, 16.93, -11.45, 1.0283358, 0, 0, 0, 1.0, 0, 0, 1, 0, 1, 31.7, 0, 1, 1, 0, 1, 0, 1, 0, 1, 0, 1
2099, '1', 2.3, -1.44, 2.13, -1.44, 1.0007466, 0, 0, 0, 1.0, 0, 0, 1, 1, 1, 2.3, 0, 1, 1, 0, 1, 0, 1, 0, 1, 0, 1
2100, '1', 35.1, -21.6, 31.95, -21.6, 1.013506, 0, 0, 0, 1.0, 0, 0, 1, 1, 1, 35.1, 0, 1, 1, 0, 1, 0, 1, 0, 1, 0, 1
2103, '1', 80.423, -29.72, 136.28, -29.72, 1.007642, 0, 0, 0, 1.0, 0, 0, 1, 0, 1, 267.73, 80.32, 1, 1, 0, 1, 0, 1, 0, 1, 0, 1
2104, '1', 117.866, -29.72, 136.28, -29.72, 1.007642, 0, 0, 0, 1.0, 0, 0, 1, 0, 1, 267.73, 80.32, 1, 1, 0, 1, 0, 1, 0, 1, 0, 1
2105, '1', 179.517, -22.823, 136.28, -29.72, 1.007642, 0, 0, 0, 1.0, 0, 0, 1, 0, 1, 267.73, 80.32, 1, 1, 0, 1, 0, 1, 0, 1, 0, 1
2115, '1', 184.72, -20.5, 94.02, -20.5, 1.0031597, 0, 0, 0, 1.0, 0, 0, 1, 1, 1, 184.72, 55.41, 1, 1, 0, 1, 0, 1, 0, 1, 0, 1
2116, '1', 184.72, -20.5, 94.02, -20.5, 1.0078357, 0, 0, 0, 1.0, 0, 0, 1, 1, 1, 184.72, 55.41, 1, 1, 0, 1, 0, 1, 0, 1, 0, 1
2117, '1', 184.72, -20.5, 94.02, -20.5, 1.0004102, 0, 0, 0, 1.0, 0, 0, 1, 1, 1, 184.72, 55.41, 1, 1, 0, 1, 0, 1, 0, 1, 0, 1
2118, '1', 184.72, -20.5, 94.02, -20.5, 1, 0, 0, 0, 1.0, 0, 0, 1, 1, 1, 184.72, 55.41, 1, 1, 0, 1, 0, 1, 0, 1, 0, 1
2119, '1', 184.72, -20.5, 94.02, -20.5, 1.0067504, 0, 0, 0, 1.0, 0, 0, 1, 1, 1, 184.72, 55.41, 1, 1, 0, 1, 0, 1, 0, 1, 0, 1
2120, '1', 184.72, -20.5, 94.02, -20.5, 1.01, 0, 0, 0, 1.0, 0, 0, 1, 1, 1, 184.72, 55.41, 1, 1, 0, 1, 0, 1, 0, 1, 0, 1
2123, '1', 70.6, -26.16, 38.7, -26.16, 1.0254748, 0, 0, 0, 1.0, 0, 0, 1, 1, 1, 70.6, 0, 1, 1, 0, 1, 0, 1, 0, 1, 0, 1
2127, '1', 104.6, 28.230041, 61.47, -41.56, 1.04, 0, 0, 0, 1.0, 0, 0, 1, 1, 1, 104.6, 0, 1, 1, 0, 1, 0, 1, 0, 1, 0, 1
3004, '1', 2.8, -5.4, 7.99, -5.4, 1, 0, 0, 0, 1.0, 0, 0, 1, 1, 1, 2.8, 0, 1, 1, 0, 1, 0, 1, 0, 1, 0, 1
3017, '1', 12.2, -24.41, 36.1, -24.41, 1.01, 0, 0, 0, 1.0, 0, 0, 1, 1, 1, 12.2, 0, 1, 1, 0, 1, 0, 1, 0, 1, 0, 1
3020, '1', 10.8, -21.6, 31.95, -21.6, 1.03, 0, 0, 0, 1.0, 0, 0, 1, 1, 1, 10.8, 0, 1, 1, 0, 1, 0, 1, 0, 1, 0, 1
3028, '1', 5.7, -28.8, 42.6, -28.8, 1.04, 0, 0, 0, 1.0, 0, 0, 1, 1, 1, 5.7, 0, 1, 1, 0, 1, 0, 1, 0, 1, 0, 1
3034, '1', 3.4, -18.79, 27.8, -18.79, 1.03, 0, 0, 0, 1.0, 0, 0, 1, 1, 1, 3.4, 0, 1, 1, 0, 1, 0, 1, 0, 1, 0, 1
3039, '1', 5.3, -30.1, 44.52, -30.1, 1.04, 0, 0, 0, 1.0, 0, 0, 1, 1, 1, 5.3, 0, 1, 1, 0, 1, 0, 1, 0, 1, 0, 1
3043, '1', 1.3, 0.66, 0.66, -0.14, 1.0316776, 0, 0, 0, 1.0, 0, 0, 1, 0, 1, 1.3, 0.39, 1, 1, 0, 1, 0, 1, 0, 1, 0, 1
3044, '1', 89.382, 5.348, 45.5, -9.92, 1.0316776, 0, 0, 0, 1.0, 0, 0, 1, 0, 1, 89.4, 26.82, 1, 1, 0, 1, 0, 1, 0, 1, 0, 1
3045, '1', 134.272, 7.676, 227.52, -49.62, 1.0316776, 0, 0, 0, 1.0, 0, 0, 1, 0, 1, 447, 134.1, 1, 1, 0, 1, 0, 1, 0, 1, 0, 1
3048, '1', 6.4, -34.7, 51.33, -34.7, 1.0331575, 0, 0, 0, 1.0, 0, 0, 1, 1, 1, 6.4, 0, 1, 1, 0, 1, 0, 1, 0, 1, 0, 1
3055, '1', 12.8, -35.3, 52.22, -35.3, 1.04, 0, 0, 0, 1.0, 0, 0, 1, 1, 1, 12.8, 0, 1, 1, 0, 1, 0, 1, 0, 1, 0, 1
3056, '1', 12.8, -35.3, 52.22, -35.3, 1.04, 0, 0, 0, 1.0, 0, 0, 1, 1, 1, 12.8, 0, 1, 1, 0, 1, 0, 1, 0, 1, 0, 1
3057, '1', 12.8, -35.3, 52.22, -35.3, 1.04, 0, 0, 0, 1.0, 0, 0, 1, 1, 1, 12.8, 0, 1, 1, 0, 1, 0, 1, 0, 1, 0, 1
3060, '1', 8, -23.85, 35.28, -23.85, 1.04, 0, 0, 0, 1.0, 0, 0, 1, 1, 1, 8, 0, 1, 1, 0, 1, 0, 1, 0, 1, 0, 1
3061, '1', 0.1, -23.85, 35.28, -23.85, 1.04, 0, 0, 0, 1.0, 0, 0, 1, 1, 1, 0.1, 0, 1, 1, 0, 1, 0, 1, 0, 1, 0, 1
3062, '1', 8, -23.85, 35.28, -23.85, 1.04, 0, 0, 0, 1.0, 0, 0, 1, 1, 1, 8, 0, 1, 1, 0, 1, 0, 1, 0, 1, 0, 1
3063, '1', 8, -23.85, 35.28, -23.85, 1.04, 0, 0, 0, 1.0, 0, 0, 1, 1, 1, 8, 0, 1, 1, 0, 1, 0, 1, 0, 1, 0, 1
3065, '1', 3, -11.59, 17.15, -11.59, 1, 0, 0, 0, 1.0, 0, 0, 1, 1, 1, 3, 0, 1, 1, 0, 1, 0, 1, 0, 1, 0, 1
3068, '1', 0, -21.6, 31.95, -21.6, 1.0297433, 0, 0, 0, 1.0, 0, 0, 1, 1, 1, 0, 0, 1, 1, 0, 1, 0, 1, 0, 1, 0, 1
3071, '1', 1.6, -24.51, 36.25, -24.51, 1, 0, 0, 0, 1.0, 0, 0, 1, 1, 1, 1.6, 0, 1, 1, 0, 1, 0, 1, 0, 1, 0, 1
3074, '1', 40.2, -14.37, 21.26, -14.37, 1, 0, 0, 0, 1.0, 0, 0, 1, 1, 1, 40.2, 0, 1, 1, 0, 1, 0, 1, 0, 1, 0, 1
3081, '1', 5.3, -35.86, 53.04, -35.86, 1.04, 0, 0, 0, 1.0, 0, 0, 1, 1, 1, 5.3, 0, 1, 1, 0, 1, 0, 1, 0, 1, 0, 1
3084, '1', 21.2, -33.48, 49.52, -33.48, 1, 0, 0, 0, 1.0, 0, 0, 1, 1, 1, 21.2, 0, 1, 1, 0, 1, 0, 1, 0, 1, 0, 1
3086, '1', 1.5, -10.8, 15.97, -10.8, 1, 0, 0, 0, 1.0, 0, 0, 1, 1, 1, 1.5, 0, 1, 1, 0, 1, 0, 1, 0, 1, 0, 1
3087, '1', 0, -5.95, 15.97, -10.8, 1.0117581, 0, 0, 0, 1.0, 0, 0, 1, 0, 1, 1.5, 0, 1, 1, 0, 1, 0, 1, 0, 1, 0, 1
3092, '1', 5.3, -28.8, 42.6, -28.8, 1.04, 0, 0, 0, 1.0, 0, 0, 1, 1, 1, 5.3, 0, 1, 1, 0, 1, 0, 1, 0, 1, 0, 1
3095, '1', 5.3, -17.37, 25.69, -17.37, 1.04, 0, 0, 0, 1.0, 0, 0, 1, 1, 1, 5.3, 0, 1, 1, 0, 1, 0, 1, 0, 1, 0, 1
3098, '1', 2.4, -23.04, 34.08, -23.04, 1.04, 0, 0, 0, 1.0, 0, 0, 1, 1, 1, 2.4, 0, 1, 1, 0, 1, 0, 1, 0, 1, 0, 1
3105, '1', 9.451, -0.74, 17.071, -0.74, 1, 0, 0, 0, 1.0, 0, 0, 1, 1, 1, 9.451, 0, 1, 1, 0, 1, 0, 1, 0, 1, 0, 1
3106, '1', 34.592, -2.69, 62.477, -2.69, 1, 0, 0, 0, 1.0, 0, 0, 1, 1, 1, 34.592, 0, 1, 1, 0, 1, 0, 1, 0, 1, 0, 1
3110, '1', 1.6, -12.1, 17.89, -12.1, 1.04, 0, 0, 0, 1.0, 0, 0, 1, 1, 1, 1.6, 0, 1, 1, 0, 1, 0, 1, 0, 1, 0, 1
3112, '1', 3.6, -10.77, 15.93, -10.77, 1, 0, 0, 0, 1.0, 0, 0, 1, 1, 1, 3.6, 0, 1, 1, 0, 1, 0, 1, 0, 1, 0, 1
3113, '1', 1.7, -10.77, 15.93, -10.77, 1, 0, 0, 0, 1.0, 0, 0, 1, 1, 1, 1.7, 0, 1, 1, 0, 1, 0, 1, 0, 1, 0, 1
3117, '1', 0.4, -9.07, 13.42, -9.07, 1, 0, 0, 0, 1.0, 0, 0, 1, 1, 1, 0.4, 0, 1, 1, 0, 1, 0, 1, 0, 1, 0, 1
3118, '1', 0.2, -17.28, 25.56, -17.28, 1, 0, 0, 0, 1.0, 0, 0, 1, 1, 1, 0.2, 0, 1, 1, 0, 1, 0, 1, 0, 1, 0, 1
3120, '1', 0, 0, 0, 0, 1.0005078, 0, 0, 0, 1.0, 0, 0, 1, 1, 1, 0, 0, 1, 1, 0, 1, 0, 1, 0, 1, 0, 1
3122, '1', 4.5, -28.37, 41.96, -28.37, 1, 0, 0, 0, 1.0, 0, 0, 1, 1, 1, 4.5, 0, 1, 1, 0, 1, 0, 1, 0, 1, 0, 1
3127, '1', 9.7, -19.44, 28.76, -19.44, 1.0013278, 0, 0, 0, 1.0, 0, 0, 1, 1, 1, 9.7, 0, 1, 1, 0, 1, 0, 1, 0, 1, 0, 1
3129, '1', 3.2, -18.22, 26.94, -18.22, 1.0050824, 0, 0, 0, 1.0, 0, 0, 1, 1, 1, 3.2, 0, 1, 1, 0, 1, 0, 1, 0, 1, 0, 1
3131, '1', 10.2, -16.42, 24.28, -16.42, 1.011406, 0, 0, 0, 1.0, 0, 0, 1, 1, 1, 10.2, 0, 1, 1, 0, 1, 0, 1, 0, 1, 0, 1
3133, '1', 47.425, 1.741, 26.11, -5.69, 1.0234328, 0, 0, 0, 1.0, 0, 0, 1, 0, 1, 51.3, 15.39, 1, 1, 0, 1, 0, 1, 0, 1, 0, 1
3133, '2', 51.29, 1.741, 26.11, -5.69, 1.0234328, 0, 0, 0, 1.0, 0, 0, 1, 0, 1, 51.3, 15.39, 1, 1, 0, 1, 0, 1, 0, 1, 0, 1
3133, '3', 51.29, 1.741, 26.11, -5.69, 1.0234328, 0, 0, 0, 1.0, 0, 0, 1, 0, 1, 51.3, 15.39, 1, 1, 0, 1, 0, 1, 0, 1, 0, 1
3137, '1', 7.3, -14.57, 21.56, -14.57, 1.0258535, 0, 0, 0, 1.0, 0, 0, 1, 1, 1, 7.3, 0, 1, 1, 0, 1, 0, 1, 0, 1, 0, 1
3141, '1', 6.5, -13.18, 19.49, -13.18, 1.0037299, 0, 0, 0, 1.0, 0, 0, 1, 1, 1, 6.5, 0, 1, 1, 0, 1, 0, 1, 0, 1, 0, 1
4010, '1', 31.3, -29.03, 42.94, -29.03, 1.03, 0, 0, 0, 1.0, 0, 0, 1, 1, 1, 31.3, 0, 1, 1, 0, 1, 0, 1, 0, 1, 0, 1
4026, '1', 410, -50.02, 191.06, -50.02, 1.03, 0, 0, 0, 1.0, 0, 0, 1, 1, 1, 410, 123, 1, 1, 0, 1, 0, 1, 0, 1, 0, 1
4030, '1', 622.4, -75.93, 290.04, -75.93, 1.01, 0, 0, 0, 1.0, 0, 0, 1, 1, 1, 622.4, 186.72, 1, 1, 0, 1, 0, 1, 0, 1, 0, 1
4045, '1', 19.848, -1.54, 35.862, -1.54, 1.02, 0, 0, 0, 1.0, 0, 0, 1, 1, 1, 19.848, 0, 1, 1, 0, 1, 0, 1, 0, 1, 0, 1
4046, '1', 6.049, -0.47, 10.936, -0.47, 1.02, 0, 0, 0, 1.0, 0, 0, 1, 1, 1, 6.049, 0, 1, 1, 0, 1, 0, 1, 0, 1, 0, 1
4047, '1', 41.586, -3.23, 75.102, -3.23, 1.02, 0, 0, 0, 1.0, 0, 0, 1, 1, 1, 41.586, 0, 1, 1, 0, 1, 0, 1, 0, 1, 0, 1
4050, '1', 164.3, -28.8, 42.6, -28.8, 1, 0, 0, 0, 1.0, 0, 0, 1, 1, 1, 164.3, 0, 1, 1, 0, 1, 0, 1, 0, 1, 0, 1
4052, '1', 44.2, -4.91, 22.5, -4.91, 1.018369, 0, 0, 0, 1.0, 0, 0, 1, 1, 1, 44.2, 13.26, 1, 1, 0, 1, 0, 1, 0, 1, 0, 1
4058, '1', 144, -15.98, 73.3, -15.98, 1.03, 0, 0, 0, 1.0, 0, 0, 1, 1, 1, 144, 43.2, 1, 1, 0, 1, 0, 1, 0, 1, 0, 1
4059, '1', 144, -15.98, 73.3, -15.98, 1.03, 0, 0, 0, 1.0, 0, 0, 1, 1, 1, 144, 43.2, 1, 1, 0, 1, 0, 1, 0, 1, 0, 1
4060, '1', 144, -15.98, 73.3, -15.98, 1.03, 0, 0, 0, 1.0, 0, 0, 1, 1, 1, 144, 43.2, 1, 1, 0, 1, 0, 1, 0, 1, 0, 1
4061, '1', 172.33, -19.13, 87.72, -19.13, 1.03, 0, 0, 0, 1.0, 0, 0, 1, 1, 1, 172.33, 51.7, 1, 1, 0, 1, 0, 1, 0, 1, 0, 1
4062, '1', 172.33, -19.13, 87.72, -19.13, 1.03, 0, 0, 0, 1.0, 0, 0, 1, 1, 1, 172.33, 51.7, 1, 1, 0, 1, 0, 1, 0, 1, 0, 1
4063, '1', 172.33, -19.13, 87.72, -19.13, 1.03, 0, 0, 0, 1.0, 0, 0, 1, 1, 1, 172.33, 51.7, 1, 1, 0, 1, 0, 1, 0, 1, 0, 1
4065, '1', 47, -5.22, 23.92, -5.22, 1.02, 0, 0, 0, 1.0, 0, 0, 1, 1, 1, 47, 14.1, 1, 1, 0, 1, 0, 1, 0, 1, 0, 1
4075, '1', 151.686, 38.962, 89.75, -19.57, 1.0054541, 0, 0, 0, 1.0, 0, 0, 1, 0, 1, 176.33, 52.9, 1, 1, 0, 1, 0, 1, 0, 1, 0, 1
4076, '1', 64.856586, -19.57, 89.75, -19.57, 1.03, 0, 0, 0, 1.0, 0, 0, 1, 1, 1, 176.33, 52.9, 1, 1, 0, 1, 0, 1, 0, 1, 0, 1
4077, '1', 64.856586, -19.57, 89.75, -19.57, 1.03, 0, 0, 0, 1.0, 0, 0, 1, 1, 1, 176.33, 52.9, 1, 1, 0, 1, 0, 1, 0, 1, 0, 1
4082, '1', 243.4, -27.02, 123.89, -27.02, 1.04, 0, 0, 0, 1.0, 0, 0, 1, 1, 1, 243.4, 73.02, 1, 1, 0, 1, 0, 1, 0, 1, 0, 1
4083, '1', 243.4, -27.02, 123.89, -27.02, 1.04, 0, 0, 0, 1.0, 0, 0, 1, 1, 1, 243.4, 73.02, 1, 1, 0, 1, 0, 1, 0, 1, 0, 1
4084, '1', 243.4, -27.02, 123.89, -27.02, 1.04, 0, 0, 0, 1.0, 0, 0, 1, 1, 1, 243.4, 73.02, 1, 1, 0, 1, 0, 1, 0, 1, 0, 1
4085, '1', 352, -39.07, 179.17, -39.07, 1.04, 0, 0, 0, 1.0, 0, 0, 1, 1, 1, 352, 105.6, 1, 1, 0, 1, 0, 1, 0, 1, 0, 1
4090, '1', 1.4, 0.65, 0.65, -0.17, 0.99906369, 0, 0, 0, 1.0, 0, 0, 1, 0, 1, 1.4, 0.42, 1, 1, 0, 1, 0, 1, 0, 1, 0, 1
4091, '1', 23.5, -2.87, 10.95, -2.87, 1.01, 0, 0, 0, 1.0, 0, 0, 1, 1, 1, 23.5, 7.05, 1, 1, 0, 1, 0, 1, 0, 1, 0, 1
4092, '1', 7.598, 3.54, 3.54, -0.93, 0.99906369, 0, 0, 0, 1.0, 0, 0, 1, 0, 1, 7.6, 2.28, 1, 1, 0, 1, 0, 1, 0, 1, 0, 1
4093, '1', 28, -3.42, 13.05, -3.42, 1.01, 0, 0, 0, 1.0, 0, 0, 1, 1, 1, 28, 8.4, 1, 1, 0, 1, 0, 1, 0, 1, 0, 1
4094, '1', 28, -3.42, 13.05, -3.42, 1.01, 0, 0, 0, 1.0, 0, 0, 1, 1, 1, 28, 8.4, 1, 1, 0, 1, 0, 1, 0, 1, 0, 1
4095, '1', 28, -3.42, 13.05, -3.42, 1.01, 0, 0, 0, 1.0, 0, 0, 1, 1, 1, 28, 8.4, 1, 1, 0, 1, 0, 1, 0, 1, 0, 1
4096, '1', 27.994, 2.49, 13.05, -3.42, 0.99906369, 0, 0, 0, 1.0, 0, 0, 1, 0, 1, 28, 8.4, 1, 1, 0, 1, 0, 1, 0, 1, 0, 1
4097, '1', 28, -3.42, 13.05, -3.42, 1.01, 0, 0, 0, 1.0, 0, 0, 1, 1, 1, 28, 8.4, 1, 1, 0, 1, 0, 1, 0, 1, 0, 1
4098, '1', 27.994, 2.898, 13.05, -3.42, 0.99906369, 0, 0, 0, 1.0, 0, 0, 1, 0, 1, 28, 8.4, 1, 1, 0, 1, 0, 1, 0, 1, 0, 1
4105, '1', 106.7, -25.92, 38.34, -25.92, 1.01, 0, 0, 0, 1.0, 0, 0, 1, 1, 1, 106.7, 0, 1, 1, 0, 1, 0, 1, 0, 1, 0, 1
4115, '1', 48.477096, -14.63, 67.09, -14.63, 1.04, 0, 0, 0, 1.0, 0, 0, 1, 1, 1, 131.8, 39.54, 1, 1, 0, 1, 0, 1, 0, 1, 0, 1
4116, '1', 48.477096, -14.63, 67.09, -14.63, 1.04, 0, 0, 0, 1.0, 0, 0, 1, 1, 1, 131.8, 39.54, 1, 1, 0, 1, 0, 1, 0, 1, 0, 1
4133, '1', 19.496, -3.73, 17.1, -3.73, 1.0108334, 0, 0, 0, 1.0, 0, 0, 1, 0, 1, 33.6, 10.08, 1, 1, 0, 1, 0, 1, 0, 1, 0, 1
4134, '1', 12.358349, -3.73, 17.1, -3.73, 1.0048184, 0, 0, 0, 1.0, 0, 0, 1, 1, 1, 33.6, 10.08, 1, 1, 0, 1, 0, 1, 0, 1, 0, 1
4135, '1', 12.358349, -3.73, 17.1, -3.73, 1.0055946, 0, 0, 0, 1.0, 0, 0, 1, 1, 1, 33.6, 10.08, 1, 1, 0, 1, 0, 1, 0, 1, 0, 1
4136, '1', 12.358349, -3.73, 17.1, -3.73, 1.0031557, 0, 0, 0, 1.0, 0, 0, 1, 1, 1, 33.6, 10.08, 1, 1, 0, 1, 0, 1, 0, 1, 0, 1
4137, '1', 20.186, -7.46, 34.2, -7.46, 1.0108334, 0, 0, 0, 1.0, 0, 0, 1, 0, 1, 67.2, 20.16, 1, 1, 0, 1, 0, 1, 0, 1, 0, 1
4138, '1', 19.825, -7.33, 33.59, -7.33, 1.0108334, 0, 0, 0, 1.0, 0, 0, 1, 0, 1, 66, 19.8, 1, 1, 0, 1, 0, 1, 0, 1, 0, 1
4142, '1', 72.7, -27.07, 40.04, -27.07, 1.0238797, 0, 0, 0, 1.0, 0, 0, 1, 1, 1, 72.7, 0, 1, 1, 0, 1, 0, 1, 0, 1, 0, 1
4153, '1', 126.9, -40.78, 60.32, -40.78, 1.0216222, 0, 0, 0, 1.0, 0, 0, 1, 1, 1, 126.9, 0, 1, 1, 0, 1, 0, 1, 0, 1, 0, 1
4160, '1', 197.77, -21.95, 100.66, -21.95, 1.03, 0, 0, 0, 1.0, 0, 0, 1, 1, 1, 197.77, 59.33, 1, 1, 0, 1, 0, 1, 0, 1, 0, 1
4161, '1', 197.77, -21.95, 100.66, -21.95, 1.03, 0, 0, 0, 1.0, 0, 0, 1, 1, 1, 197.77, 59.33, 1, 1, 0, 1, 0, 1, 0, 1, 0, 1
4162, '1', 197.77, -21.95, 100.66, -21.95, 1.03, 0, 0, 0, 1.0, 0, 0, 1, 1, 1, 197.77, 59.33, 1, 1, 0, 1, 0, 1, 0, 1, 0, 1
4163, '1', 8.998, 4.58, 4.58, -1, 1.0114538, 0, 0, 0, 1.0, 0, 0, 1, 0, 1, 9, 2.7, 1, 1, 0, 1, 0, 1, 0, 1, 0, 1
4166, '1', 90.1, -28.94, 42.81, -28.94, 1.0001461, 0, 0, 0, 1.0, 0, 0, 1, 1, 1, 90.1, 0, 1, 1, 0, 1, 0, 1, 0, 1, 0, 1
4177, '1', 7.2, -21.6, 31.95, -21.6, 1.04, 0, 0, 0, 1.0, 0, 0, 1, 1, 1, 7.2, 0, 1, 1, 0, 1, 0, 1, 0, 1, 0, 1
4181, '1', 84.1, -28.81, 42.62, -28.81, 1.0168717, 0, 0, 0, 1.0, 0, 0, 1, 1, 1, 84.1, 0, 1, 1, 0, 1, 0, 1, 0, 1, 0, 1
4183, '1', 80.7, -29.23, 43.24, -29.23, 1.0106894, 0, 0, 0, 1.0, 0, 0, 1, 1, 1, 80.7, 0, 1, 1, 0, 1, 0, 1, 0, 1, 0, 1
4192, '1', 75, -8.33, 38.17, -8.33, 1.02, 0, 0, 0, 1.0, 0, 0, 1, 1, 1, 75, 22.5, 1, 1, 0, 1, 0, 1, 0, 1, 0, 1
4192, '10', 183.77, -20.4, 93.54, -20.4, 1.02, 0, 0, 0, 1.0, 0, 0, 1, 1, 1, 183.77, 55.13, 1, 1, 0, 1, 0, 1, 0, 1, 0, 1
4192, '2', 23.995, 12.22, 12.22, -2.66, 1.02, 0, 0, 0, 1.0, 0, 0, 1, 0, 1, 24, 7.2, 1, 1, 0, 1, 0, 1, 0, 1, 0, 1
4192, '3', 61, -6.77, 31.05, -6.77, 1.02, 0, 0, 0, 1.0, 0, 0, 1, 1, 1, 61, 18.3, 1, 1, 0, 1, 0, 1, 0, 1, 0, 1
4192, '4', 10.4, -1.15, 5.29, -1.15, 1.02, 0, 0, 0, 1.0, 0, 0, 1, 1, 1, 10.4, 3.12, 1, 1, 0, 1, 0, 1, 0, 1, 0, 1
4192, '5', 267, -29.64, 135.9, -29.64, 1.02, 0, 0, 0, 1.0, 0, 0, 1, 1, 1, 267, 80.1, 1, 1, 0, 1, 0, 1, 0, 1, 0, 1
4192, '6', 267, -29.64, 135.9, -29.64, 1.02, 0, 0, 0, 1.0, 0, 0, 1, 1, 1, 267, 80.1, 1, 1, 0, 1, 0, 1, 0, 1, 0, 1
4192, '7', 267, -29.64, 135.9, -29.64, 1.02, 0, 0, 0, 1.0, 0, 0, 1, 1, 1, 267, 80.1, 1, 1, 0, 1, 0, 1, 0, 1, 0, 1
4192, '8', 183.77, -20.4, 93.54, -20.4, 1.02, 0, 0, 0, 1.0, 0, 0, 1, 1, 1, 183.77, 55.13, 1, 1, 0, 1, 0, 1, 0, 1, 0, 1
4192, '9', 183.77, -20.4, 93.54, -20.4, 1.02, 0, 0, 0, 1.0, 0, 0, 1, 1, 1, 183.77, 55.13, 1, 1, 0, 1, 0, 1, 0, 1, 0, 1
4194, '1', 80.3, -29.03, 42.94, -29.03, 0.99310069, 0, 0, 0, 1.0, 0, 0, 1, 1, 1, 80.3, 0, 1, 1, 0, 1, 0, 1, 0, 1, 0, 1
4195, '1', 21.5, -13.25, 19.6, -13.25, 1.0135901, 0, 0, 0, 1.0, 0, 0, 1, 1, 1, 21.5, 0, 1, 1, 0, 1, 0, 1, 0, 1, 0, 1
5020, '1', 61.2, -17.28, 25.56, -17.28, 1.0156495, 0, 0, 0, 1.0, 0, 0, 1, 1, 1, 61.2, 0, 1, 1, 0, 1, 0, 1, 0, 1, 0, 1
5023, '1', 4.799, 2.44, 2.44, -0.53, 1.0042196, 0, 0, 0, 1.0, 0, 0, 1, 0, 1, 4.8, 1.44, 1, 1, 0, 1, 0, 1, 0, 1, 0, 1
5035, '1', 0, 2.14, 2.14, -0.47, 1.0083416, 0, 0, 0, 1.0, 0, 0, 1, 0, 1, 4.2, 1.26, 1, 1, 0, 1, 0, 1, 0, 1, 0, 1
5036, '1', 0, 3.26, 3.26, -0.71, 1.0083416, 0, 0, 0, 1.0, 0, 0, 1, 0, 1, 6.4, 1.92, 1, 1, 0, 1, 0, 1, 0, 1, 0, 1
5037, '1', 308.47, -34.24, 157.01, -34.24, 1.02, 0, 0, 0, 1.0, 0, 0, 1, 1, 1, 308.47, 92.54, 1, 1, 0, 1, 0, 1, 0, 1, 0, 1
5038, '1', 308.47, -34.24, 157.01, -34.24, 1.02, 0, 0, 0, 1.0, 0, 0, 1, 1, 1, 308.47, 92.54, 1, 1, 0, 1, 0, 1, 0, 1, 0, 1
5039, '1', 308.47, -34.24, 157.01, -34.24, 1.0157592, 0, 0, 0, 1.0, 0, 0, 1, 1, 1, 308.47, 92.54, 1, 1, 0, 1, 0, 1, 0, 1, 0, 1
5040, '1', 308.47, -34.24, 157.01, -34.24, 1.02, 0, 0, 0, 1.0, 0, 0, 1, 1, 1, 308.47, 92.54, 1, 1, 0, 1, 0, 1, 0, 1, 0, 1
5041, '1', 308.47, -34.24, 157.01, -34.24, 1.02, 0, 0, 0, 1.0, 0, 0, 1, 1, 1, 308.47, 92.54, 1, 1, 0, 1, 0, 1, 0, 1, 0, 1
5042, '1', 308.47, -34.24, 157.01, -34.24, 1.02, 0, 0, 0, 1.0, 0, 0, 1, 1, 1, 308.47, 92.54, 1, 1, 0, 1, 0, 1, 0, 1, 0, 1
5051, '1', 84.7, -9.4, 43.11, -9.4, 1.0091188, 0, 0, 0, 1.0, 0, 0, 1, 1, 1, 84.7, 25.41, 1, 1, 0, 1, 0, 1, 0, 1, 0, 1
5057, '1', 317.287, -35.23, 161.53, -35.23, 1.0175905, 0, 0, 0, 1.0, 0, 0, 1, 0, 1, 317.35, 95.2, 1, 1, 0, 1, 0, 1, 0, 1, 0, 1
5058, '1', 317.35, -35.23, 161.53, -35.23, 1.0100288, 0, 0, 0, 1.0, 0, 0, 1, 1, 1, 317.35, 95.2, 1, 1, 0, 1, 0, 1, 0, 1, 0, 1
5065, '1', 10.6, -1.18, 5.4, -1.18, 1.0101224, 0, 0, 0, 1.0, 0, 0, 1, 1, 1, 10.6, 3.18, 1, 1, 0, 1, 0, 1, 0, 1, 0, 1
5066, '1', 1.8, 0.92, 0.92, -0.2, 1.0100033, 0, 0, 0, 1.0, 0, 0, 1, 0, 1, 1.8, 0.54, 1, 1, 0, 1, 0, 1, 0, 1, 0, 1
5067, '1', 438.27, -48.65, 223.08, -48.65, 1.03, 0, 0, 0, 1.0, 0, 0, 1, 1, 1, 438.27, 131.48, 1, 1, 0, 1, 0, 1, 0, 1, 0, 1
5068, '1', 438.27, -48.65, 223.08, -48.65, 1.03, 0, 0, 0, 1.0, 0, 0, 1, 1, 1, 438.27, 131.48, 1, 1, 0, 1, 0, 1, 0, 1, 0, 1
5069, '1', 438.27, -48.65, 223.08, -48.65, 1.03, 0, 0, 0, 1.0, 0, 0, 1, 1, 1, 438.27, 131.48, 1, 1, 0, 1, 0, 1, 0, 1, 0, 1
5089, '1', 122.812, 14.058, 47.569, -2.05, 0.98639865, 0, 0, 0, 1.0, 0, 0, 1, 0, 1, 123.9, 0, 1, 1, 0, 1, 0, 1, 0, 1, 0, 1
...
0 / END OF GENERATOR DATA, BEGIN BRANCH DATA
1001, 1064, '1', 0.00524, 0.0358, 0.00609, 221, 221, 221, 0, 0, 0, 0, 1, 1, 0, 1, 1, 0, 1, 0, 1, 0, 1
1001, 1064, '2', 0.00524, 0.0358, 0.00609, 221, 221, 221, 0, 0, 0, 0, 1, 1, 0, 1, 1, 0, 1, 0, 1, 0, 1
1001, 1071, '1', 0.00435, 0.02808, 0.00536, 221, 221, 221, 0, 0, 0, 0, 1, 1, 0, 1, 1, 0, 1, 0, 1, 0, 1
1001, 1071, '2', 0.00435, 0.02808, 0.00536, 221, 221, 221, 0, 0, 0, 0, 1, 1, 0, 1, 1, 0, 1, 0, 1, 0, 1
1002, 1007, '1', 0.07776, 0.46693, 0.06336, 98, 98, 98, 0, 0, 0, 0, 1, 1, 0, 1, 1, 0, 1, 0, 1, 0, 1
1010, 1002, '1', 0.05552, 0.1357, 0.01777, 98, 98, 98, 0, 0, 0, 0, 1, 1, 0, 1, 1, 0, 1, 0, 1, 0, 1
1022, 1003, '1', 0.00485, 0.02012, 0.00341, 221, 221, 221, 0, 0, 0, 0, 1, 1, 0, 1, 1, 0, 1, 0, 1, 0, 1
1055, 1003, '1', 0.01574, 0.03782, 0.00513, 98, 98, 98, 0, 0, 0, 0, 1, 1, 0, 1, 1, 0, 1, 0, 1, 0, 1
1004, 3133, '1', 0.0042, 0.03, 0.055, 523, 523, 523, 0, 0, 0, 0, 1, 1, 0, 1, 1, 0, 1, 0, 1, 0, 1
1025, 1005, '1', 0.01842, 0.0821, 0.01204, 149, 149, 149, 0, 0, 0, 0, 1, 1, 0, 1, 1, 0, 1, 0, 1, 0, 1
1005, 1061, '1', 0.00599, 0.02484, 0.00422, 221, 221, 221, 0, 0, 0, 0, 1, 1, 0, 1, 1, 0, 1, 0, 1, 0, 1
1067, 1005, '1', 0.01711, 0.04181, 0.00548, 250, 250, 250, 0, 0, 0, 0, 1, 1, 0, 1, 1, 0, 1, 0, 1, 0, 1
1007, 1015, '1', 0.06224, 0.37375, 0.05072, 98, 98, 98, 0, 0, 0, 0, 1, 1, 0, 1, 1, 0, 1, 0, 1, 0, 1
1031, 1007, '1', 0.04803, 0.27434, 0.04123, 98, 98, 98, 0, 0, 0, 0, 1, 1, 0, 1, 1, 0, 1, 0, 1, 0, 1
1008, 1032, '1', 0.04501, 0.11002, 0.01441, 98, 98, 98, 0, 0, 0, 0, 1, 1, 0, 1, 1, 0, 1, 0, 1, 0, 1
1008, 1069, '1', 0.0083, 0.03628, 0.00553, 149, 149, 149, 0, 0, 0, 0, 1, 1, 0, 1, 1, 0, 1, 0, 1, 0, 1
1010, 1015, '1', 0.04703, 0.28243, 0.03833, 98, 98, 98, 0, 0, 0, 0, 1, 1, 0, 1, 1, 0, 1, 0, 1, 0, 1
1010, 1030, '1', 0.0616, 0.3699, 0.0502, 98, 98, 98, 0, 0, 0, 0, 1, 1, 0, 1, 1, 0, 1, 0, 1, 0, 1
1012, 1087, '1', 0.04934, 0.20469, 0.03473, 149, 149, 149, 0, 0, 0, 0, 1, 1, 0, 1, 1, 0, 1, 0, 1, 0, 1
3051, 1012, '1', 0.0571, 0.24977, 0.03804, 149, 149, 149, 0, 0, 0, 0, 1, 1, 0, 1, 1, 0, 1, 0, 1, 0, 1
1013, 1031, '1', 0.04509, 0.27078, 0.03675, 98, 98, 98, 0, 0, 0, 0, 1, 1, 0, 1, 1, 0, 1, 0, 1, 0, 1
1047, 1013, '1', 0.00947, 0.06117, 0.01167, 221, 221, 221, 0, 0, 0, 0, 1, 1, 0, 1, 1, 0, 1, 0, 1, 0, 1
1086, 1013, '1', 0.079, 0.19311, 0.02529, 98, 98, 98, 0, 0, 0, 0, 1, 1, 0, 1, 1, 0, 1, 0, 1, 0, 1
1014, 1047, '1', 0.03566, 0.14794, 0.0251, 149, 149, 149, 0, 0, 0, 0, 1, 1, 0, 1, 1, 0, 1, 0, 1, 0, 1
1014, 1083, '1', 0.04105, 0.18293, 0.02682, 149, 149, 149, 0, 0, 0, 0, 1, 1, 0, 1, 1, 0, 1, 0, 1, 0, 1
1016, 1034, '1', 0.01828, 0.10976, 0.01489, 98, 98, 98, 0, 0, 0, 0, 1, 1, 0, 1, 1, 0, 1, 0, 1, 0, 1
1068, 1016, '1', 0.02773, 0.15837, 0.0238, 98, 98, 98, 0, 0, 0, 0, 1, 1, 0, 1, 1, 0, 1, 0, 1, 0, 1
1018, 1017, '1', 0.03227, 0.07887, 0.01033, 98, 98, 98, 0, 0, 0, 0, 1, 1, 0, 1, 1, 0, 1, 0, 1, 0, 1
1017, 1029, '1', 0.03244, 0.14188, 0.02161, 149, 149, 149, 0, 0, 0, 0, 1, 1, 0, 1, 1, 0, 1, 0, 1, 0, 1
1037, 1017, '1', 0.00752, 0.03352, 0.00491, 221, 221, 221, 0, 0, 0, 0, 1, 1, 0, 1, 1, 0, 1, 0, 1, 0, 1
1047, 1017, '1', 0.036, 0.156, 0.024, 150, 150, 150, 0, 0, 0, 0, 1, 1, 0, 1, 1, 0, 1, 0, 1, 0, 1
1024, 1018, '1', 0.01094, 0.06572, 0.00892, 98, 98, 98, 0, 0, 0, 0, 1, 1, 0, 1, 1, 0, 1, 0, 1, 0, 1
1019, 1040, '1', 0.04978, 0.20651, 0.03504, 149, 149, 149, 0, 0, 0, 0, 1, 1, 0, 1, 1, 0, 1, 0, 1, 0, 1
1019, 1045, '1', 0.01522, 0.0372, 0.00487, 221, 221, 221, 0, 0, 0, 0, 1, 1, 0, 1, 1, 0, 1, 0, 1, 0, 1
1019, 1071, '1', 0.0044, 0.028, 0.0054, 450, 450, 450, 0, 0, 0, 0, 1, 1, 0, 1, 1, 0, 1, 0, 1, 0, 1
1071, 1019, '2', 0.0044, 0.028, 0.0054, 450, 450, 450, 0, 0, 0, 0, 1, 1, 0, 1, 1, 0, 1, 0, 1, 0, 1
1019, 1084, '1', 0.03, 0.16, 0.025, 220, 220, 220, 0, 0, 0, 0, 1, 1, 0, 1, 1, 0, 1, 0, 1, 0, 1
1025, 1020, '1', 0.00828, 0.03434, 0.00583, 149, 149, 149, 0, 0, 0, 0, 1, 1, 0, 1, 1, 0, 1, 0, 1, 0, 1
1084, 1020, '1', 0.01056, 0.06337, 0.0086, 221, 221, 221, 0, 0, 0, 0, 1, 1, 0, 1, 1, 0, 1, 0, 1, 0, 1
1020, 3059, '1', 0.0189, 0.06, 0.006, 300, 300, 300, 0, 0, 0, 0, 1, 1, 0, 1, 1, 0, 1, 0, 1, 0, 1
1020, 3130, '1', 0.00996, 0.06938, 0.01134, 221, 221, 221, 0, 0, 0, 0, 1, 1, 0, 1, 1, 0, 1, 0, 1, 0, 1
1022, 1028, '1', 0.01433, 0.09253, 0.01765, 221, 221, 221, 0, 0, 0, 0, 1, 1, 0, 1, 1, 0, 1, 0, 1, 0, 1
1022, 1028, '2', 0.01433, 0.09253, 0.01765, 221, 221, 221, 0, 0, 0, 0, 1, 1, 0, 1, 1, 0, 1, 0, 1, 0, 1
1024, 1090, '1', 0.01414, 0.06303, 0.00924, 149, 149, 149, 0, 0, 0, 0, 1, 1, 0, 1, 1, 0, 1, 0, 1, 0, 1
1027, 1045, '1', 0.02505, 0.10957, 0.01669, 221, 221, 221, 0, 0, 0, 0, 1, 1, 0, 1, 1, 0, 1, 0, 1, 0, 1
1056, 1027, '1', 0.03121, 0.0763, 0.00999, 250, 250, 250, 0, 0, 0, 0, 1, 1, 0, 1, 1, 0, 1, 0, 1, 0, 1
1028, 3109, '1', 0.00428, 0.01875, 0.00286, 250, 250, 250, 0, 0, 0, 0, 1, 1, 0, 1, 1, 0, 1, 0, 1, 0, 1
1029, 1056, '1', 0.02054, 0.11733, 0.01763, 221, 221, 221, 0, 0, 0, 0, 1, 1, 0, 1, 1, 0, 1, 0, 1, 0, 1
1030, 1038, '1', 0.07404, 0.42285, 0.06354, 98, 98, 98, 0, 0, 0, 0, 1, 1, 0, 1, 1, 0, 1, 0, 1, 0, 1
1083, 1030, '1', 0.06537, 0.37334, 0.0561, 98, 98, 98, 0, 0, 0, 0, 1, 1, 0, 1, 1, 0, 1, 0, 1, 0, 1
1032, 1036, '1', 0.01956, 0.11746, 0.01594, 98, 98, 98, 0, 0, 0, 0, 1, 1, 0, 1, 1, 0, 1, 0, 1, 0, 1
1038, 1032, '1', 0.045, 0.11, 0.015, 155, 155, 155, 0, 0, 0, 0, 1, 1, 0, 1, 1, 0, 1, 0, 1, 0, 1
1033, 1081, '1', 0.003, 0.031, 0.059, 548, 548, 548, 0, 0, 0, 0, 1, 1, 0, 1, 1, 0, 1, 0, 1, 0, 1
1033, 3050, '1', 0.0139, 0.136, 0.262, 647, 647, 647, 0, 0, 0, 0, 1, 1, 0, 1, 1, 0, 1, 0, 1, 0, 1
1067, 1034, '1', 0.00795, 0.04771, 0.00647, 98, 98, 98, 0, 0, 0, 0, 1, 1, 0, 1, 1, 0, 1, 0, 1, 0, 1
1088, 1036, '1', 0.02065, 0.11793, 0.01772, 98, 98, 98, 0, 0, 0, 0, 1, 1, 0, 1, 1, 0, 1, 0, 1, 0, 1
1037, 1071, '1', 0.00669, 0.04319, 0.00824, 300, 300, 300, 0, 0, 0, 0, 1, 1, 0, 1, 1, 0, 1, 0, 1, 0, 1
1082, 1038, '1', 0.01115, 0.04969, 0.00729, 149, 149, 149, 0, 0, 0, 0, 1, 1, 0, 1, 1, 0, 1, 0, 1, 0, 1
1083, 1038, '1', 0.01, 0.05, 0.007, 221, 221, 221, 0, 0, 0, 0, 1, 1, 0, 1, 1, 0, 1, 0, 1, 0, 1
1040, 1090, '1', 0.02991, 0.13329, 0.01955, 149, 149, 149, 0, 0, 0, 0, 1, 1, 0, 1, 1, 0, 1, 0, 1, 0, 1
1065, 1041, '1', 0.00386, 0.02203, 0.00331, 98, 98, 98, 0, 0, 0, 0, 1, 1, 0, 1, 1, 0, 1, 0, 1, 0, 1
1041, 1067, '1', 0.00393, 0.01722, 0.00262, 149, 149, 149, 0, 0, 0, 0, 1, 1, 0, 1, 1, 0, 1, 0, 1, 0, 1
1044, 3019, '1', 0.03857, 0.17192, 0.02521, 149, 149, 149, 0, 0, 0, 0, 1, 1, 0, 1, 1, 0, 1, 0, 1, 0, 1
3130, 1044, '1', 0.02731, 0.19029, 0.03111, 221, 221, 221, 0, 0, 0, 0, 1, 1, 0, 1, 1, 0, 1, 0, 1, 0, 1
1045, 1064, '1', 0.00545, 0.03794, 0.0062, 221, 221, 221, 0, 0, 0, 0, 1, 1, 0, 1, 1, 0, 1, 0, 1, 0, 1
1087, 1046, '1', 0.03262, 0.14269, 0.02173, 149, 149, 149, 0, 0, 0, 0, 1, 1, 0, 1, 1, 0, 1, 0, 1, 0, 1
1046, 3009, '1', 0.05654, 0.23454, 0.0398, 149, 149, 149, 0, 0, 0, 0, 1, 1, 0, 1, 1, 0, 1, 0, 1, 0, 1
1047, 1085, '1', 0.00947, 0.06117, 0.01167, 221, 221, 221, 0, 0, 0, 0, 1, 1, 0, 1, 1, 0, 1, 0, 1, 0, 1
1053, 1081, '1', 0.003, 0.03, 0.06, 548, 548, 548, 0, 0, 0, 0, 1, 1, 0, 1, 1, 0, 1, 0, 1, 0, 1
1054, 1056, '1', 0.02202, 0.09633, 0.01467, 149, 149, 149, 0, 0, 0, 0, 1, 1, 0, 1, 1, 0, 1, 0, 1, 0, 1
1089, 1054, '1', 0.08737, 0.21357, 0.02796, 98, 98, 98, 0, 0, 0, 0, 1, 1, 0, 1, 1, 0, 1, 0, 1, 0, 1
1055, 1089, '1', 0.04982, 0.12179, 0.01595, 98, 98, 98, 0, 0, 0, 0, 1, 1, 0, 1, 1, 0, 1, 0, 1, 0, 1
1056, 1061, '1', 0.02267, 0.12946, 0.01945, 150, 150, 150, 0, 0, 0, 0, 1, 1, 0, 1, 1, 0, 1, 0, 1, 0, 1
1056, 1065, '1', 0.02269, 0.12962, 0.01948, 250, 250, 250, 0, 0, 0, 0, 1, 1, 0, 1, 1, 0, 1, 0, 1, 0, 1
1069, 1058, '1', 0.0074, 0.05155, 0.00843, 221, 221, 221, 0, 0, 0, 0, 1, 1, 0, 1, 1, 0, 1, 0, 1, 0, 1
1069, 1058, '2', 0.0074, 0.05155, 0.00843, 221, 221, 221, 0, 0, 0, 0, 1, 1, 0, 1, 1, 0, 1, 0, 1, 0, 1
1058, 1087, '1', 0.01573, 0.10956, 0.01791, 221, 221, 221, 0, 0, 0, 0, 1, 1, 0, 1, 1, 0, 1, 0, 1, 0, 1
1058, 1087, '2', 0.01573, 0.10956, 0.01791, 221, 221, 221, 0, 0, 0, 0, 1, 1, 0, 1, 1, 0, 1, 0, 1, 0, 1
1061, 3042, '1', 0.054, 0.18, 0.028, 221, 221, 221, 0, 0, 0, 0, 1, 1, 0, 1, 1, 0, 1, 0, 1, 0, 1
1088, 1068, '1', 0.02962, 0.16921, 0.02543, 98, 98, 98, 0, 0, 0, 0, 1, 1, 0, 1, 1, 0, 1, 0, 1, 0, 1
1082, 1069, '1', 0.02137, 0.0952, 0.01396, 149, 149, 149, 0, 0, 0, 0, 1, 1, 0, 1, 1, 0, 1, 0, 1, 0, 1
3048, 1079, '1', 0.0013, 0.015, 1.02, 2300, 2300, 2300, 0, 0, 0, 0, 1, 1, 0, 1, 1, 0, 1, 0, 1, 0, 1
3048, 1079, '2', 0.0013, 0.015, 1.02, 2300, 2300, 2300, 0, 0, 0, 0, 1, 1, 0, 1, 1, 0, 1, 0, 1, 0, 1
1081, 3058, '1', 0.0091, 0.089, 0.171, 548, 548, 548, 0, 0, 0, 0, 1, 1, 0, 1, 1, 0, 1, 0, 1, 0, 1
1084, 3130, '1', 0.02049, 0.09131, 0.01339, 221, 221, 221, 0, 0, 0, 0, 1, 1, 0, 1, 1, 0, 1, 0, 1, 0, 1
1085, 1086, '1', 0.03392, 0.14838, 0.0226, 149, 149, 149, 0, 0, 0, 0, 1, 1, 0, 1, 1, 0, 1, 0, 1, 0, 1
1090, 1085, '1', 0.02018, 0.13786, 0.02346, 221, 221, 221, 0, 0, 0, 0, 1, 1, 0, 1, 1, 0, 1, 0, 1, 0, 1
2029, 1091, '1', 0.0389, 0.17144, 0.0798, 187, 187, 187, 0, 0, 0, 0, 1, 1, 0, 1, 1, 0, 1, 0, 1, 0, 1
1091, 2048, '1', 0.02193, 0.09667, 0.045, 187, 187, 187, 0, 0, 0, 0, 1, 1, 0, 1, 1, 0, 1, 0, 1, 0, 1
2098, 1091, '1', 0.00554, 0.02443, 0.01137, 187, 187, 187, 0, 0, 0, 0, 1, 1, 0, 1, 1, 0, 1, 0, 1, 0, 1
2022, 2001, '1', 0.00839, 0.03697, 0.01721, 187, 187, 187, 0, 0, 0, 0, 1, 1, 0, 1, 1, 0, 1, 0, 1, 0, 1
2027, 2001, '1', 0.00955, 0.04062, 0.02032, 187, 187, 187, 0, 0, 0, 0, 1, 1, 0, 1, 1, 0, 1, 0, 1, 0, 1
2021, 2002, '1', 0.00097, 0.01175, 0.78032, 2295, 2295, 2295, 0, 0, 0, 0, 1, 1, 0, 1, 1, 0, 1, 0, 1, 0, 1
2002, 2101, '1', 0.00031, 0.0037, 0.24573, 2020, 2020, 2020, 0, 0, 0, 0, 1, 1, 0, 1, 1, 0, 1, 0, 1, 0, 1
2038, 2003, '1', 0.00353, 0.02067, 0.01032, 251, 251, 251, 0, 0, 0, 0, 1, 1, 0, 1, 1, 0, 1, 0, 1, 0, 1
2003, 2047, '1', 0.0013, 0.0099, 0.0052, 310, 310, 310, 0, 0, 0, 0, 1, 1, 0, 1, 1, 0, 1, 0, 1, 0, 1
2007, 2114, '1', 0.00888, 0.05207, 0.026, 251, 251, 251, 0, 0, 0, 0, 1, 1, 0, 1, 1, 0, 1, 0, 1, 0, 1
2007, 2122, '1', 0.00861, 0.03661, 0.01831, 187, 187, 187, 0, 0, 0, 0, 1, 1, 0, 1, 1, 0, 1, 0, 1, 0, 1
2014, 2008, '1', 0.02253, 0.09931, 0.04623, 187, 187, 187, 0, 0, 0, 0, 1, 1, 0, 1, 1, 0, 1, 0, 1, 0, 1
2008, 2052, '1', 0.01877, 0.08271, 0.0385, 187, 187, 187, 0, 0, 0, 0, 1, 1, 0, 1, 1, 0, 1, 0, 1, 0, 1
2009, 2049, '1', 0.01224, 0.07176, 0.03583, 251, 251, 251, 0, 0, 0, 0, 1, 1, 0, 1, 1, 0, 1, 0, 1, 0, 1
2009, 2082, '1', 0.00735, 0.03126, 0.01563, 400, 400, 400, 0, 0, 0, 0, 1, 1, 0, 1, 1, 0, 1, 0, 1, 0, 1
2109, 2009, '1', 0.00725, 0.03084, 0.01542, 250, 250, 250, 0, 0, 0, 0, 1, 1, 0, 1, 1, 0, 1, 0, 1, 0, 1
2061, 2010, '1', 0.02439, 0.10748, 0.05003, 187, 187, 187, 0, 0, 0, 0, 1, 1, 0, 1, 1, 0, 1, 0, 1, 0, 1
2010, 2079, '1', 0.02061, 0.09083, 0.04228, 187, 187, 187, 0, 0, 0, 0, 1, 1, 0, 1, 1, 0, 1, 0, 1, 0, 1
2010, 2091, '1', 0.02461, 0.10467, 0.05235, 187, 187, 187, 0, 0, 0, 0, 1, 1, 0, 1, 1, 0, 1, 0, 1, 0, 1
2127, 2011, '1', 0.00108, 0.01307, 0.86827, 2020, 2020, 2020, 0, 0, 0, 0, 1, 1, 0, 1, 1, 0, 1, 0, 1, 0, 1
2012, 2041, '1', 0.01245, 0.05297, 0.02649, 187, 187, 187, 0, 0, 0, 0, 1, 1, 0, 1, 1, 0, 1, 0, 1, 0, 1
2012, 2052, '1', 0.02008, 0.08851, 0.0412, 187, 187, 187, 0, 0, 0, 0, 1, 1, 0, 1, 1, 0, 1, 0, 1, 0, 1
2093, 2012, '1', 0.01029, 0.04536, 0.02111, 187, 187, 187, 0, 0, 0, 0, 1, 1, 0, 1, 1, 0, 1, 0, 1, 0, 1
2012, 2123, '1', 0.00995, 0.0423, 0.02115, 251, 251, 251, 0, 0, 0, 0, 1, 1, 0, 1, 1, 0, 1, 0, 1, 0, 1
2014, 2029, '1', 0.01859, 0.07908, 0.03955, 187, 187, 187, 0, 0, 0, 0, 1, 1, 0, 1, 1, 0, 1, 0, 1, 0, 1
2015, 2037, '1', 0.00862, 0.03799, 0.01769, 187, 187, 187, 0, 0, 0, 0, 1, 1, 0, 1, 1, 0, 1, 0, 1, 0, 1
...